Version 4
SHEET 1 2796 1368
WIRE 1808 -48 1776 -48
WIRE 1808 -32 1744 -32
WIRE 1648 -16 1520 -16
WIRE 1808 -16 1648 -16
WIRE 1936 -16 1872 -16
WIRE 1808 0 1712 0
WIRE 1776 64 1776 -48
WIRE 1808 64 1776 64
WIRE 1744 80 1744 -32
WIRE 1808 80 1744 80
WIRE 1648 96 1648 -16
WIRE 1808 96 1648 96
WIRE 1936 96 1872 96
WIRE 1808 112 1680 112
WIRE 1008 144 1008 96
WIRE 1088 144 1088 96
WIRE 1168 144 1168 96
WIRE 1776 176 1776 64
WIRE 1808 176 1776 176
WIRE 1744 192 1744 80
WIRE 1808 192 1744 192
WIRE 1808 208 1616 208
WIRE 1936 208 1872 208
WIRE 1712 224 1712 0
WIRE 1808 224 1712 224
WIRE 1008 272 1008 224
WIRE 1088 272 1088 224
WIRE 1168 272 1168 224
WIRE 1776 288 1776 176
WIRE 1808 288 1776 288
WIRE 1744 304 1744 192
WIRE 1808 304 1744 304
WIRE 1616 320 1616 208
WIRE 1808 320 1616 320
WIRE 1936 320 1872 320
WIRE 1680 336 1680 112
WIRE 1808 336 1680 336
WIRE 1648 368 1648 96
WIRE 1712 368 1712 224
WIRE 1776 368 1776 288
WIRE 1616 464 1616 320
WIRE 1648 464 1648 432
WIRE 1648 464 1616 464
WIRE 1680 464 1680 336
WIRE 1712 464 1712 432
WIRE 1712 464 1680 464
WIRE 1520 544 1520 -16
WIRE 1520 544 1424 544
WIRE 1648 544 1648 464
WIRE 1712 544 1712 464
WIRE 1776 544 1776 432
WIRE 1648 624 1648 544
WIRE 1648 624 1616 624
WIRE 1712 624 1712 544
WIRE 1712 624 1680 624
WIRE 1648 656 1648 624
WIRE 1712 656 1712 624
WIRE 1024 688 1024 640
WIRE 1680 752 1680 624
WIRE 1808 752 1680 752
WIRE 1616 768 1616 624
WIRE 1808 768 1616 768
WIRE 1936 768 1872 768
WIRE 1808 784 1744 784
WIRE 1024 800 1024 768
WIRE 1776 800 1776 544
WIRE 1808 800 1776 800
WIRE 1712 864 1712 720
WIRE 1808 864 1712 864
WIRE 1616 880 1616 768
WIRE 1808 880 1616 880
WIRE 1936 880 1872 880
WIRE 1744 896 1744 784
WIRE 1808 896 1744 896
WIRE 1024 912 1024 880
WIRE 1776 912 1776 800
WIRE 1808 912 1776 912
WIRE 1680 976 1680 752
WIRE 1808 976 1680 976
WIRE 1648 992 1648 720
WIRE 1808 992 1648 992
WIRE 1936 992 1872 992
WIRE 1744 1008 1744 896
WIRE 1808 1008 1744 1008
WIRE 1776 1024 1776 912
WIRE 1808 1024 1776 1024
WIRE 1024 1056 1024 992
WIRE 1712 1088 1712 864
WIRE 1808 1088 1712 1088
WIRE 1520 1104 1520 544
WIRE 1648 1104 1648 992
WIRE 1648 1104 1520 1104
WIRE 1808 1104 1648 1104
WIRE 1936 1104 1872 1104
WIRE 1744 1120 1744 1008
WIRE 1808 1120 1744 1120
WIRE 1776 1136 1776 1024
WIRE 1808 1136 1776 1136
FLAG 1008 272 0
FLAG 1088 272 0
FLAG 1008 96 A
IOPIN 1008 96 Out
FLAG 1088 96 B
IOPIN 1088 96 Out
FLAG 1776 544 A
IOPIN 1776 544 In
FLAG 1648 544 B
IOPIN 1648 544 In
FLAG 1936 -16 D0-DEMUX
IOPIN 1936 -16 Out
FLAG 1936 96 D1-DEMUX
IOPIN 1936 96 Out
FLAG 1936 208 D2-DEMUX
IOPIN 1936 208 Out
FLAG 1936 320 D3-DEMUX
IOPIN 1936 320 Out
FLAG 1024 1056 0
FLAG 1024 640 1-4-DEMUX
IOPIN 1024 640 Out
FLAG 1168 272 0
FLAG 1168 96 B
IOPIN 1168 96 Out
FLAG 1424 544 1-8-DEMUX
IOPIN 1424 544 In
FLAG 1936 1104 D7-DEMUX
IOPIN 1936 1104 Out
FLAG 1936 992 D6-DEMUX
IOPIN 1936 992 Out
FLAG 1936 880 D5-DEMUX
IOPIN 1936 880 Out
FLAG 1936 768 D4-DEMUX
IOPIN 1936 768 Out
FLAG 1712 544 C
IOPIN 1712 544 In
SYMBOL voltage 1008 128 R0
WINDOW 3 -34 183 Left 2
WINDOW 123 0 0 Left 0
WINDOW 39 0 0 Left 0
SYMATTR Value PULSE(0 5 1m 1n 1n 1m 2m)
SYMATTR InstName V1
SYMBOL voltage 1088 128 R0
WINDOW 3 -114 216 Left 2
WINDOW 123 0 0 Left 0
WINDOW 39 0 0 Left 0
SYMATTR Value PULSE(0 5 2m 1n 1n 2m 4m)
SYMATTR InstName V2
SYMBOL DigitalLogic\\INV_1 1712 416 R270
SYMATTR InstName U12
SYMBOL DigitalLogic\\INV_1 1648 416 R270
SYMATTR InstName U13
SYMBOL voltage 1024 672 R0
WINDOW 3 47 54 Left 2
WINDOW 123 0 0 Left 0
WINDOW 39 0 0 Left 0
SYMATTR Value PULSE(0 5 0 1n 1n 2m 4m 1)
SYMATTR InstName V15
SYMBOL voltage 1024 784 R0
WINDOW 3 47 53 Left 2
WINDOW 123 0 0 Left 0
WINDOW 39 0 0 Left 0
SYMATTR Value PULSE(0 5 4m 1n 1n 1m 2m 1)
SYMATTR InstName V16
SYMBOL voltage 1024 896 R0
WINDOW 3 49 52 Left 2
WINDOW 123 0 0 Left 0
WINDOW 39 0 0 Left 0
SYMATTR Value PULSE(0 5 6m 1n 1n 2m 4m 1)
SYMATTR InstName V17
SYMBOL voltage 1168 128 R0
WINDOW 3 -194 244 Left 2
WINDOW 123 0 0 Left 0
WINDOW 39 0 0 Left 0
SYMATTR Value PULSE(0 5 4m 1n 1n 4m 8m)
SYMATTR InstName V22
SYMBOL DigitalLogic\\INV_1 1712 672 M90
SYMATTR InstName U5
SYMBOL DigitalLogic\\INV_1 1648 672 M90
SYMATTR InstName U6
SYMBOL DigitalLogic\\AND_4 1840 -16 R0
SYMATTR InstName U7
SYMBOL DigitalLogic\\AND_4 1840 96 R0
SYMATTR InstName U8
SYMBOL DigitalLogic\\AND_4 1840 208 R0
SYMATTR InstName U9
SYMBOL DigitalLogic\\AND_4 1840 320 R0
SYMATTR InstName U10
SYMBOL DigitalLogic\\AND_4 1840 1104 M180
SYMATTR InstName U1
SYMBOL DigitalLogic\\AND_4 1840 992 M180
SYMATTR InstName U2
SYMBOL DigitalLogic\\AND_4 1840 880 M180
SYMATTR InstName U3
SYMBOL DigitalLogic\\AND_4 1840 768 M180
SYMATTR InstName U4
SYMBOL DigitalLogic\\INV_1 1776 416 R270
SYMATTR InstName U11
