Version 4
SHEET 1 1216 1016
WIRE -48 80 -48 32
WIRE 0 80 -48 80
WIRE 64 80 64 32
WIRE 112 80 64 80
WIRE 176 80 176 32
WIRE 224 80 176 80
WIRE 288 80 288 32
WIRE 336 80 288 80
WIRE 0 112 0 80
WIRE 112 112 112 80
WIRE 224 112 224 80
WIRE 336 112 336 80
WIRE -608 208 -608 144
WIRE -512 208 -512 144
WIRE -416 208 -416 144
WIRE -320 208 -320 144
WIRE -48 208 -48 80
WIRE 480 208 -48 208
WIRE 784 224 544 224
WIRE 224 240 224 176
WIRE 480 240 224 240
WIRE 64 304 64 80
WIRE 480 304 64 304
WIRE 784 304 784 224
WIRE 976 304 784 304
WIRE 608 320 544 320
WIRE 1088 320 1040 320
WIRE 224 336 224 240
WIRE 480 336 224 336
WIRE 976 336 944 336
WIRE -608 352 -608 288
WIRE -512 352 -512 288
WIRE -416 352 -416 288
WIRE -320 352 -320 288
WIRE 608 352 608 320
WIRE 656 352 608 352
WIRE 784 368 720 368
WIRE 656 384 608 384
WIRE 784 384 784 368
WIRE 848 384 784 384
WIRE 64 400 64 304
WIRE 480 400 64 400
WIRE 944 400 944 336
WIRE 944 400 912 400
WIRE 608 416 608 384
WIRE 608 416 544 416
WIRE 848 416 784 416
WIRE -48 432 -48 208
WIRE 480 432 -48 432
WIRE 336 480 336 176
WIRE 784 480 784 416
WIRE 784 480 336 480
WIRE 0 528 0 176
WIRE 480 528 0 528
WIRE 608 544 544 544
WIRE 176 560 176 80
WIRE 480 560 176 560
WIRE 288 624 288 80
WIRE 480 624 288 624
WIRE 608 624 608 544
WIRE 672 624 608 624
WIRE 176 640 176 560
WIRE 480 640 176 640
WIRE 672 640 544 640
WIRE 1088 640 736 640
WIRE 112 656 112 176
WIRE 480 656 112 656
WIRE 672 656 608 656
WIRE 0 720 0 528
WIRE 480 720 0 720
WIRE 112 736 112 656
WIRE 480 736 112 736
WIRE 608 736 608 656
WIRE 608 736 544 736
WIRE 288 752 288 624
WIRE 480 752 288 752
WIRE -48 848 -48 432
WIRE 480 848 -48 848
WIRE 608 864 560 864
WIRE 176 880 176 640
WIRE 480 880 176 880
WIRE 608 896 608 864
WIRE 672 896 608 896
WIRE 1088 912 736 912
WIRE 672 928 608 928
WIRE 288 944 288 752
WIRE 480 944 288 944
WIRE 608 960 608 928
WIRE 608 960 560 960
WIRE 64 976 64 400
WIRE 480 976 64 976
FLAG -48 32 A1
IOPIN -48 32 In
FLAG 64 32 A0
IOPIN 64 32 In
FLAG 176 32 B1
IOPIN 176 32 In
FLAG 288 32 B0
IOPIN 288 32 In
FLAG 1088 320 A>B
IOPIN 1088 320 Out
FLAG 1088 640 A<B
IOPIN 1088 640 Out
FLAG 1088 912 A<>B
IOPIN 1088 912 Out
FLAG -608 144 A1
IOPIN -608 144 Out
FLAG -512 144 B1
IOPIN -512 144 Out
FLAG -416 144 A0
IOPIN -416 144 Out
FLAG -320 144 B0
IOPIN -320 144 Out
FLAG -608 352 0
FLAG -512 352 0
FLAG -416 352 0
FLAG -320 352 0
SYMBOL DigitalLogic\\INV_1 0 128 R90
SYMATTR InstName U1
SYMBOL DigitalLogic\\INV_1 112 128 R90
SYMATTR InstName U2
SYMBOL DigitalLogic\\INV_1 224 128 R90
SYMATTR InstName U3
SYMBOL DigitalLogic\\INV_1 336 128 R90
SYMATTR InstName U4
SYMBOL DigitalLogic\\AND_2 512 224 R0
SYMATTR InstName U5
SYMBOL DigitalLogic\\AND_2 512 320 R0
SYMATTR InstName U6
SYMBOL DigitalLogic\\AND_2 512 416 R0
SYMATTR InstName U7
SYMBOL DigitalLogic\\AND_2 512 544 R0
SYMATTR InstName U8
SYMBOL DigitalLogic\\AND_2 880 400 R0
SYMATTR InstName U9
SYMBOL DigitalLogic\\AND_3 512 640 R0
SYMATTR InstName U10
SYMBOL DigitalLogic\\AND_3 512 736 R0
SYMATTR InstName U11
SYMBOL DigitalLogic\\XNOR_2 528 864 R0
SYMATTR InstName U12
SYMBOL DigitalLogic\\XNOR_2 528 960 R0
SYMATTR InstName U13
SYMBOL DigitalLogic\\OR_3 704 640 R0
SYMATTR InstName U14
SYMBOL DigitalLogic\\OR_2 688 368 R0
SYMATTR InstName U15
SYMBOL DigitalLogic\\OR_2 704 912 R0
SYMATTR InstName U16
SYMBOL DigitalLogic\\OR_2 1008 320 R0
SYMATTR InstName U17
SYMBOL voltage -608 192 R0
WINDOW 3 -11 200 Left 2
WINDOW 123 0 0 Left 0
WINDOW 39 0 0 Left 0
SYMATTR InstName V1
SYMATTR Value PULSE(0 5 8m 1n 1n 8m 16m)
SYMBOL voltage -512 192 R0
WINDOW 3 -106 231 Left 2
WINDOW 123 0 0 Left 0
WINDOW 39 0 0 Left 0
SYMATTR InstName V2
SYMATTR Value PULSE(0 5 4m 1n 1n 4m 8m)
SYMBOL voltage -416 192 R0
WINDOW 3 -202 257 Left 2
WINDOW 123 0 0 Left 0
WINDOW 39 0 0 Left 0
SYMATTR InstName V3
SYMATTR Value PULSE(0 5 2m 1n 1n 2m 4m)
SYMBOL voltage -320 192 R0
WINDOW 3 -297 285 Left 2
WINDOW 123 0 0 Left 0
WINDOW 39 0 0 Left 0
SYMATTR InstName V4
SYMATTR Value PULSE(0 5 0 1n 1n 1m 2m)
TEXT -496 648 Left 2 !.tran 16m
