Version 4
SHEET 1 2968 968
WIRE 672 32 672 0
WIRE 880 32 672 32
WIRE 960 48 944 48
WIRE 848 64 848 0
WIRE 880 64 848 64
WIRE -176 112 -176 48
WIRE -96 112 -96 48
WIRE 496 128 448 128
WIRE 672 128 672 32
WIRE 672 128 624 128
WIRE 704 128 672 128
WIRE 848 128 848 64
WIRE 848 128 832 128
WIRE 960 128 960 48
WIRE 1136 128 1088 128
WIRE 512 176 496 176
WIRE 976 176 960 176
WIRE -176 240 -176 192
WIRE -96 240 -96 192
WIRE 496 272 496 176
WIRE 496 272 448 272
WIRE 704 272 704 176
WIRE 704 272 496 272
WIRE 960 272 960 176
WIRE 960 272 704 272
FLAG -176 48 A
IOPIN -176 48 Out
FLAG -176 240 0
FLAG -96 48 Clock
IOPIN -96 48 Out
FLAG -96 240 0
FLAG 448 128 A
IOPIN 448 128 In
FLAG 448 272 Clock
IOPIN 448 272 In
FLAG 672 0 LSB
IOPIN 672 0 Out
FLAG 1136 128 MSB
IOPIN 1136 128 Out
FLAG 848 0 Qb
IOPIN 848 0 Out
SYMBOL voltage -176 96 R0
WINDOW 3 -59 200 Left 2
WINDOW 123 0 0 Left 0
WINDOW 39 0 0 Left 0
SYMATTR Value PULSE(0 5 0 1n 1n 2m 4m)
SYMATTR InstName V1
SYMBOL voltage -96 96 R0
WINDOW 3 -139 226 Left 2
WINDOW 123 0 0 Left 0
WINDOW 39 0 0 Left 0
SYMATTR Value PULSE(0 5 1m 1n 1n 1m 2m)
SYMATTR InstName V3
SYMBOL DigitalLogic\\TFF 560 160 R0
SYMATTR InstName U16
SYMBOL DigitalLogic\\TFF 768 160 R0
SYMATTR InstName U17
SYMBOL DigitalLogic\\TFF 1024 160 R0
SYMATTR InstName U18
SYMBOL DigitalLogic\\AND_2 912 48 R0
SYMATTR InstName U1
TEXT 72 72 Left 2 !.tran 16m
