Version 4
SHEET 1 2196 936
WIRE 384 -304 336 -304
WIRE 880 -304 384 -304
WIRE 1376 -304 880 -304
WIRE -304 -272 -304 -352
WIRE -224 -272 -224 -352
WIRE -144 -272 -144 -352
WIRE -64 -272 -64 -352
WIRE 16 -272 16 -352
WIRE 96 -272 96 -352
WIRE 384 -256 384 -304
WIRE 880 -256 880 -304
WIRE 1376 -256 1376 -304
WIRE -304 -128 -304 -192
WIRE -224 -128 -224 -192
WIRE -144 -128 -144 -192
WIRE -64 -128 -64 -192
WIRE 16 -128 16 -192
WIRE 96 -128 96 -192
WIRE 400 -64 400 -176
WIRE 432 -64 400 -64
WIRE 896 -64 896 -176
WIRE 928 -64 896 -64
WIRE 1392 -64 1392 -176
WIRE 1424 -64 1392 -64
WIRE 544 -48 512 -48
WIRE 608 -48 544 -48
WIRE 1040 -48 1008 -48
WIRE 1104 -48 1040 -48
WIRE 1536 -48 1504 -48
WIRE 1600 -48 1536 -48
WIRE 368 -32 368 -128
WIRE 432 -32 368 -32
WIRE 720 -32 720 -128
WIRE 720 -32 688 -32
WIRE 864 -32 864 -128
WIRE 928 -32 864 -32
WIRE 1216 -32 1216 -128
WIRE 1216 -32 1184 -32
WIRE 1360 -32 1360 -128
WIRE 1424 -32 1360 -32
WIRE 1712 -32 1712 -128
WIRE 1712 -32 1680 -32
WIRE 608 -16 576 -16
WIRE 1104 -16 1072 -16
WIRE 1600 -16 1568 -16
WIRE 336 16 336 -304
WIRE 336 16 320 16
WIRE 576 16 576 -16
WIRE 576 16 336 16
WIRE 1072 16 1072 -16
WIRE 1072 16 816 16
WIRE 1568 16 1568 -16
WIRE 1568 16 1312 16
WIRE 576 48 576 16
WIRE 608 48 576 48
WIRE 1072 48 1072 16
WIRE 1104 48 1072 48
WIRE 1568 48 1568 16
WIRE 1600 48 1568 48
WIRE 704 64 672 64
WIRE 1200 64 1168 64
WIRE 1696 64 1664 64
WIRE 544 80 544 -48
WIRE 608 80 544 80
WIRE 1040 80 1040 -48
WIRE 1104 80 1040 80
WIRE 1536 80 1536 -48
WIRE 1600 80 1536 80
WIRE 704 96 704 64
WIRE 720 96 704 96
WIRE 1200 96 1200 64
WIRE 1216 96 1200 96
WIRE 1696 96 1696 64
WIRE 1712 96 1696 96
WIRE 816 112 816 16
WIRE 816 112 784 112
WIRE 1312 112 1312 16
WIRE 1312 112 1280 112
WIRE 720 128 704 128
WIRE 1216 128 1200 128
WIRE 1712 128 1696 128
WIRE 368 144 368 -32
WIRE 608 144 368 144
WIRE 864 144 864 -32
WIRE 1104 144 864 144
WIRE 1360 144 1360 -32
WIRE 1600 144 1360 144
WIRE 704 160 704 128
WIRE 704 160 672 160
WIRE 1200 160 1200 128
WIRE 1200 160 1168 160
WIRE 1696 160 1696 128
WIRE 1696 160 1664 160
WIRE 400 176 400 -64
WIRE 608 176 400 176
WIRE 896 176 896 -64
WIRE 1104 176 896 176
WIRE 1392 176 1392 -64
WIRE 1600 176 1392 176
FLAG -304 -128 0
FLAG -224 -128 0
FLAG -144 -128 0
FLAG -304 -352 A
IOPIN -304 -352 Out
FLAG -224 -352 B
IOPIN -224 -352 Out
FLAG -144 -352 C
IOPIN -144 -352 Out
FLAG 1776 112 Cout
IOPIN 1776 112 Out
FLAG 320 16 Cin
IOPIN 320 16 In
FLAG 416 -256 1
IOPIN 416 -256 In
FLAG 912 -256 0
IOPIN 912 -256 In
FLAG 1408 -256 0
IOPIN 1408 -256 In
FLAG 368 -128 C
IOPIN 368 -128 In
FLAG 864 -128 B
IOPIN 864 -128 In
FLAG 1360 -128 A
IOPIN 1360 -128 In
FLAG 720 -128 S0
IOPIN 720 -128 Out
FLAG 1216 -128 S1
IOPIN 1216 -128 Out
FLAG 1712 -128 S2
IOPIN 1712 -128 Out
FLAG -64 -128 0
FLAG -64 -352 1
IOPIN -64 -352 Out
FLAG 96 -128 0
FLAG 96 -352 Cin
IOPIN 96 -352 Out
FLAG 16 -128 0
FLAG 16 -352 0
IOPIN 16 -352 Out
SYMBOL voltage -304 -288 R0
WINDOW 3 -32 208 Left 2
WINDOW 123 0 0 Left 0
WINDOW 39 0 0 Left 0
SYMATTR Value PULSE(0 5 1m 1n 1n 1m 2m)
SYMATTR InstName V1
SYMBOL voltage -224 -288 R0
WINDOW 3 -111 241 Left 2
WINDOW 123 0 0 Left 0
WINDOW 39 0 0 Left 0
SYMATTR Value PULSE(0 5 2m 1n 1n 2m 4m)
SYMATTR InstName V2
SYMBOL voltage -144 -288 R0
WINDOW 3 -192 274 Left 2
WINDOW 123 0 0 Left 0
WINDOW 39 0 0 Left 0
SYMATTR Value PULSE(0 5 4m 1n 1n 4m 8m)
SYMATTR InstName V3
SYMBOL DigitalLogic\\XOR_2 480 -48 R0
SYMATTR InstName U1
SYMBOL DigitalLogic\\XOR_2 656 -32 R0
SYMATTR InstName U2
SYMBOL DigitalLogic\\AND_2 640 64 R0
SYMATTR InstName U3
SYMBOL DigitalLogic\\AND_2 640 160 R0
SYMATTR InstName U4
SYMBOL DigitalLogic\\OR_2 752 112 R0
SYMATTR InstName U5
SYMBOL DigitalLogic\\XOR_2 976 -48 R0
SYMATTR InstName U6
SYMBOL DigitalLogic\\XOR_2 1152 -32 R0
SYMATTR InstName U7
SYMBOL DigitalLogic\\AND_2 1136 64 R0
SYMATTR InstName U13
SYMBOL DigitalLogic\\AND_2 1136 160 R0
SYMATTR InstName U14
SYMBOL DigitalLogic\\OR_2 1248 112 R0
SYMATTR InstName U15
SYMBOL DigitalLogic\\XOR_2 1472 -48 R0
SYMATTR InstName U16
SYMBOL DigitalLogic\\XOR_2 1648 -32 R0
SYMATTR InstName U17
SYMBOL DigitalLogic\\AND_2 1632 64 R0
SYMATTR InstName U18
SYMBOL DigitalLogic\\AND_2 1632 160 R0
SYMATTR InstName U19
SYMBOL DigitalLogic\\OR_2 1744 112 R0
SYMATTR InstName U20
SYMBOL voltage -64 -288 R0
WINDOW 3 -274 300 Left 2
WINDOW 123 0 0 Left 0
WINDOW 39 0 0 Left 0
SYMATTR Value 5
SYMATTR InstName V4
SYMBOL voltage 96 -288 R0
WINDOW 3 -284 301 Left 2
WINDOW 123 0 0 Left 0
WINDOW 39 0 0 Left 0
SYMATTR Value 5
SYMATTR InstName V5
SYMBOL voltage 16 -288 R0
WINDOW 3 -274 300 Left 2
WINDOW 123 0 0 Left 0
WINDOW 39 0 0 Left 0
SYMATTR Value 0
SYMATTR InstName V6
SYMBOL DigitalLogic\\XOR_2 400 -208 R90
SYMATTR InstName U8
SYMBOL DigitalLogic\\XOR_2 896 -208 R90
SYMATTR InstName U9
SYMBOL DigitalLogic\\XOR_2 1392 -208 R90
SYMATTR InstName U10
TEXT -200 216 Left 2 ;3 - BIT DECREMENTER
TEXT -144 80 Left 2 !.tran 8m
TEXT -144 248 Left 1 !Dhriti - 20BDS0164
