Version 4
SHEET 1 2280 932
WIRE 1056 -464 1056 -496
WIRE 1104 -464 1056 -464
WIRE 1152 -464 1152 -496
WIRE 1200 -464 1152 -464
WIRE 1248 -464 1248 -496
WIRE 1296 -464 1248 -464
WIRE 1344 -464 1344 -496
WIRE 1392 -464 1344 -464
WIRE 1056 -448 1056 -464
WIRE 1152 -448 1152 -464
WIRE 1248 -448 1248 -464
WIRE 1344 -448 1344 -464
WIRE 1104 -336 1104 -464
WIRE 1536 -336 1104 -336
WIRE 1200 -320 1200 -464
WIRE 1536 -320 1200 -320
WIRE 1296 -304 1296 -464
WIRE 1536 -304 1296 -304
WIRE 1392 -288 1392 -464
WIRE 1536 -288 1392 -288
WIRE 1104 -256 1104 -336
WIRE 1536 -256 1104 -256
WIRE 1200 -240 1200 -320
WIRE 1536 -240 1200 -240
WIRE 1296 -224 1296 -304
WIRE 1536 -224 1296 -224
WIRE 1344 -208 1344 -384
WIRE 1536 -208 1344 -208
WIRE 1104 -176 1104 -256
WIRE 1536 -176 1104 -176
WIRE 1200 -160 1200 -240
WIRE 1536 -160 1200 -160
WIRE 1248 -144 1248 -384
WIRE 1536 -144 1248 -144
WIRE 1392 -128 1392 -288
WIRE 1536 -128 1392 -128
WIRE 1104 -96 1104 -176
WIRE 1536 -96 1104 -96
WIRE 1200 -80 1200 -160
WIRE 1536 -80 1200 -80
WIRE 1248 -64 1248 -144
WIRE 1536 -64 1248 -64
WIRE 1344 -48 1344 -208
WIRE 1536 -48 1344 -48
WIRE 1104 -16 1104 -96
WIRE 1536 -16 1104 -16
WIRE 1152 0 1152 -384
WIRE 1536 0 1152 0
WIRE 1296 16 1296 -224
WIRE 1536 16 1296 16
WIRE 1392 32 1392 -128
WIRE 1536 32 1392 32
WIRE 1104 64 1104 -16
WIRE 1536 64 1104 64
WIRE 1152 80 1152 0
WIRE 1536 80 1152 80
WIRE 400 96 400 16
WIRE 480 96 480 16
WIRE 560 96 560 16
WIRE 640 96 640 16
WIRE 1296 96 1296 16
WIRE 1536 96 1296 96
WIRE 1856 96 1600 96
WIRE 1344 112 1344 -48
WIRE 1536 112 1344 112
WIRE 1104 144 1104 64
WIRE 1536 144 1104 144
WIRE 1152 160 1152 80
WIRE 1536 160 1152 160
WIRE 1248 176 1248 -64
WIRE 1536 176 1248 176
WIRE 1712 176 1600 176
WIRE 1392 192 1392 32
WIRE 1536 192 1392 192
WIRE 1104 224 1104 144
WIRE 1536 224 1104 224
WIRE 400 240 400 176
WIRE 480 240 480 176
WIRE 560 240 560 176
WIRE 640 240 640 176
WIRE 1152 240 1152 160
WIRE 1536 240 1152 240
WIRE 1712 240 1712 176
WIRE 1728 240 1712 240
WIRE 1248 256 1248 176
WIRE 1536 256 1248 256
WIRE 1824 256 1792 256
WIRE 1344 272 1344 112
WIRE 1536 272 1344 272
WIRE 1728 272 1712 272
WIRE 1056 304 1056 -384
WIRE 1536 304 1056 304
WIRE 1856 304 1856 96
WIRE 1200 320 1200 -80
WIRE 1536 320 1200 320
WIRE 1824 320 1824 256
WIRE 1856 320 1824 320
WIRE 1296 336 1296 96
WIRE 1536 336 1296 336
WIRE 1728 336 1600 336
WIRE 1856 336 1824 336
WIRE 1984 336 1920 336
WIRE 1392 352 1392 192
WIRE 1536 352 1392 352
WIRE 1056 384 1056 304
WIRE 1536 384 1056 384
WIRE 1200 400 1200 320
WIRE 1536 400 1200 400
WIRE 1728 400 1728 336
WIRE 1744 400 1728 400
WIRE 1296 416 1296 336
WIRE 1536 416 1296 416
WIRE 1824 416 1824 336
WIRE 1824 416 1808 416
WIRE 1344 432 1344 272
WIRE 1536 432 1344 432
WIRE 1744 432 1728 432
WIRE 1056 464 1056 384
WIRE 1536 464 1056 464
WIRE 1200 480 1200 400
WIRE 1536 480 1200 480
WIRE 1248 496 1248 256
WIRE 1536 496 1248 496
WIRE 1728 496 1728 432
WIRE 1728 496 1600 496
WIRE 1392 512 1392 352
WIRE 1536 512 1392 512
WIRE 1056 544 1056 464
WIRE 1536 544 1056 544
WIRE 1200 560 1200 480
WIRE 1536 560 1200 560
WIRE 1248 576 1248 496
WIRE 1536 576 1248 576
WIRE 1344 592 1344 432
WIRE 1536 592 1344 592
WIRE 1056 624 1056 544
WIRE 1536 624 1056 624
WIRE 1152 640 1152 240
WIRE 1536 640 1152 640
WIRE 1296 656 1296 416
WIRE 1536 656 1296 656
WIRE 1392 672 1392 512
WIRE 1536 672 1392 672
WIRE 1056 704 1056 624
WIRE 1536 704 1056 704
WIRE 1152 720 1152 640
WIRE 1536 720 1152 720
WIRE 1296 736 1296 656
WIRE 1536 736 1296 736
WIRE 1344 752 1344 592
WIRE 1536 752 1344 752
WIRE 1056 784 1056 704
WIRE 1536 784 1056 784
WIRE 1152 800 1152 720
WIRE 1536 800 1152 800
WIRE 1248 816 1248 576
WIRE 1536 816 1248 816
WIRE 1712 816 1712 272
WIRE 1712 816 1600 816
WIRE 1392 832 1392 672
WIRE 1536 832 1392 832
WIRE 1712 848 1712 816
WIRE 1728 848 1712 848
WIRE 1056 864 1056 784
WIRE 1536 864 1056 864
WIRE 1856 864 1856 352
WIRE 1856 864 1792 864
WIRE 1152 880 1152 800
WIRE 1536 880 1152 880
WIRE 1728 880 1712 880
WIRE 1248 896 1248 816
WIRE 1536 896 1248 896
WIRE 1712 896 1712 880
WIRE 1712 896 1600 896
WIRE 1344 912 1344 752
WIRE 1536 912 1344 912
FLAG 400 240 0
FLAG 480 240 0
FLAG 560 240 0
FLAG 400 16 A
IOPIN 400 16 Out
FLAG 480 16 B
IOPIN 480 16 Out
FLAG 560 16 C
IOPIN 560 16 Out
FLAG 640 240 0
FLAG 640 16 D
IOPIN 640 16 Out
FLAG 1056 -496 A
IOPIN 1056 -496 In
FLAG 1152 -496 B
IOPIN 1152 -496 In
FLAG 1248 -496 C
IOPIN 1248 -496 In
FLAG 1344 -496 D
IOPIN 1344 -496 In
FLAG 1984 336 OUTPUT
IOPIN 1984 336 Out
SYMBOL voltage 400 80 R0
WINDOW 3 -32 208 Left 2
WINDOW 123 0 0 Left 0
WINDOW 39 0 0 Left 0
SYMATTR Value PULSE(0 5 0 1n 1n 1m 2m)
SYMATTR InstName V1
SYMBOL voltage 480 80 R0
WINDOW 3 -111 241 Left 2
WINDOW 123 0 0 Left 0
WINDOW 39 0 0 Left 0
SYMATTR Value PULSE(0 5 0 1n 1n 2m 4m)
SYMATTR InstName V2
SYMBOL voltage 560 80 R0
WINDOW 3 -192 274 Left 2
WINDOW 123 0 0 Left 0
WINDOW 39 0 0 Left 0
SYMATTR Value PULSE(0 5 0 1n 1n 4m 8m)
SYMATTR InstName V3
SYMBOL voltage 640 80 R0
WINDOW 3 -273 301 Left 2
WINDOW 123 0 0 Left 0
WINDOW 39 0 0 Left 0
SYMATTR Value PULSE(0 5 0 1n 1n 8m 16m)
SYMATTR InstName V4
SYMBOL DigitalLogic\\AND_4 1568 -304 R0
SYMATTR InstName U1
SYMBOL DigitalLogic\\AND_4 1568 -224 R0
SYMATTR InstName U2
SYMBOL DigitalLogic\\AND_4 1568 -144 R0
SYMATTR InstName U3
SYMBOL DigitalLogic\\AND_4 1568 -64 R0
SYMATTR InstName U4
SYMBOL DigitalLogic\\AND_4 1568 16 R0
SYMATTR InstName U5
SYMBOL DigitalLogic\\AND_4 1568 96 R0
SYMATTR InstName U6
SYMBOL DigitalLogic\\AND_4 1568 176 R0
SYMATTR InstName U7
SYMBOL DigitalLogic\\AND_4 1568 256 R0
SYMATTR InstName U8
SYMBOL DigitalLogic\\AND_4 1568 336 R0
SYMATTR InstName U9
SYMBOL DigitalLogic\\AND_4 1568 416 R0
SYMATTR InstName U10
SYMBOL DigitalLogic\\AND_4 1568 496 R0
SYMATTR InstName U11
SYMBOL DigitalLogic\\AND_4 1568 576 R0
SYMATTR InstName U12
SYMBOL DigitalLogic\\AND_4 1568 656 R0
SYMATTR InstName U13
SYMBOL DigitalLogic\\AND_4 1568 736 R0
SYMATTR InstName U14
SYMBOL DigitalLogic\\AND_4 1568 816 R0
SYMATTR InstName U15
SYMBOL DigitalLogic\\AND_4 1568 896 R0
SYMATTR InstName U16
SYMBOL DigitalLogic\\INV_1 1056 -432 R90
SYMATTR InstName U17
SYMBOL DigitalLogic\\INV_1 1152 -432 R90
SYMATTR InstName U18
SYMBOL DigitalLogic\\INV_1 1248 -432 R90
SYMATTR InstName U19
SYMBOL DigitalLogic\\INV_1 1344 -432 R90
SYMATTR InstName U20
SYMBOL DigitalLogic\\OR_2 1760 864 R0
SYMATTR InstName U21
SYMBOL DigitalLogic\\OR_2 1776 416 R0
SYMATTR InstName U22
SYMBOL DigitalLogic\\OR_2 1760 256 R0
SYMATTR InstName U23
SYMBOL DigitalLogic\\OR_4 1888 336 R0
SYMATTR InstName U24
TEXT 448 440 Left 2 !.tran 16m
TEXT 720 120 Left 2 ;PUT SOMTHING
TEXT 736 144 Left 1 ;ROLL NUMBER
