Version 4
SHEET 1 880 732
WIRE -368 80 -368 32
WIRE -288 80 -288 32
WIRE -208 80 -208 32
WIRE -128 80 -128 32
WIRE -368 192 -368 160
WIRE -288 192 -288 160
WIRE -208 192 -208 160
WIRE -128 192 -128 160
WIRE 224 192 224 144
WIRE 288 192 224 192
WIRE 192 208 192 144
WIRE 288 208 192 208
WIRE 160 224 160 144
WIRE 288 224 160 224
WIRE 400 224 352 224
WIRE 128 240 128 144
WIRE 288 240 128 240
WIRE 224 304 224 192
WIRE 288 304 224 304
WIRE 192 320 192 208
WIRE 288 320 192 320
WIRE 96 336 96 144
WIRE 288 336 96 336
WIRE 400 336 352 336
WIRE 64 352 64 144
WIRE 288 352 64 352
WIRE 224 416 224 304
WIRE 288 416 224 416
WIRE 160 432 160 224
WIRE 288 432 160 432
WIRE -368 448 -368 400
WIRE -288 448 -288 400
WIRE -208 448 -208 400
WIRE -128 448 -128 400
WIRE 96 448 96 336
WIRE 288 448 96 448
WIRE 400 448 352 448
WIRE 32 464 32 144
WIRE 288 464 32 464
WIRE -368 560 -368 528
WIRE -288 560 -288 528
WIRE -208 560 -208 528
WIRE -128 560 -128 528
FLAG -368 192 0
FLAG -288 192 0
FLAG -208 192 0
FLAG -128 192 0
FLAG -368 32 Y0
IOPIN -368 32 Out
FLAG -288 32 Y1
IOPIN -288 32 Out
FLAG -208 32 Y2
IOPIN -208 32 Out
FLAG -128 32 Y3
IOPIN -128 32 Out
FLAG -368 560 0
FLAG -288 560 0
FLAG -208 560 0
FLAG -128 560 0
FLAG -368 400 Y4
IOPIN -368 400 Out
FLAG -288 400 Y5
IOPIN -288 400 Out
FLAG -208 400 Y6
IOPIN -208 400 Out
FLAG -128 400 Y7
IOPIN -128 400 Out
FLAG 32 144 Y1
IOPIN 32 144 In
FLAG 64 144 Y2
IOPIN 64 144 In
FLAG 96 144 Y3
IOPIN 96 144 In
FLAG 128 144 Y4
IOPIN 128 144 In
FLAG 160 144 Y5
IOPIN 160 144 In
FLAG 192 144 Y6
IOPIN 192 144 In
FLAG 224 144 Y7
IOPIN 224 144 In
FLAG 400 224 A2
IOPIN 400 224 Out
FLAG 400 336 A1
IOPIN 400 336 Out
FLAG 400 448 A0
IOPIN 400 448 Out
SYMBOL DigitalLogic\\OR_4 320 224 R0
SYMATTR InstName U1
SYMBOL DigitalLogic\\OR_4 320 336 R0
SYMATTR InstName U2
SYMBOL DigitalLogic\\OR_4 320 448 R0
SYMATTR InstName U3
SYMBOL voltage -368 64 R0
WINDOW 3 -15 184 Left 2
WINDOW 123 0 0 Left 0
WINDOW 39 0 0 Left 0
SYMATTR InstName V1
SYMATTR Value PULSE(0 5 0m 1n 1n 1m 2m 1)
SYMBOL voltage -288 64 R0
WINDOW 3 -96 209 Left 2
WINDOW 123 0 0 Left 0
WINDOW 39 0 0 Left 0
SYMATTR InstName V2
SYMATTR Value PULSE(0 5 1m 1n 1n 1m 2m 1)
SYMBOL voltage -208 64 R0
WINDOW 3 -175 235 Left 2
WINDOW 123 0 0 Left 0
WINDOW 39 0 0 Left 0
SYMATTR InstName V3
SYMATTR Value PULSE(0 5 2m 1n 1n 1m 2m 1)
SYMBOL voltage -128 64 R0
WINDOW 3 -255 261 Left 2
WINDOW 123 0 0 Left 0
WINDOW 39 0 0 Left 0
SYMATTR InstName V4
SYMATTR Value PULSE(0 5 3m 1n 1n 1m 2m 1)
SYMBOL voltage -368 432 R0
WINDOW 3 -15 184 Left 2
WINDOW 123 0 0 Left 0
WINDOW 39 0 0 Left 0
SYMATTR InstName V5
SYMATTR Value PULSE(0 5 4m 1n 1n 1m 2m 1)
SYMBOL voltage -288 432 R0
WINDOW 3 -96 209 Left 2
WINDOW 123 0 0 Left 0
WINDOW 39 0 0 Left 0
SYMATTR InstName V6
SYMATTR Value PULSE(0 5 5m 1n 1n 1m 2m 1)
SYMBOL voltage -208 432 R0
WINDOW 3 -175 235 Left 2
WINDOW 123 0 0 Left 0
WINDOW 39 0 0 Left 0
SYMATTR InstName V7
SYMATTR Value PULSE(0 5 6m 1n 1n 1m 2m 1)
SYMBOL voltage -128 432 R0
WINDOW 3 -255 261 Left 2
WINDOW 123 0 0 Left 0
WINDOW 39 0 0 Left 0
SYMATTR InstName V8
SYMATTR Value PULSE(0 5 7m 1n 1n 1m 2m 1)
TEXT -440 714 Left 2 !.tran 8m
