Version 4
SHEET 1 880 680
WIRE -224 32 -224 0
WIRE 368 64 0 64
WIRE -384 128 -384 64
WIRE -304 128 -304 64
WIRE -224 128 -224 96
WIRE 0 128 0 64
WIRE 32 128 0 128
WIRE 192 144 96 144
WIRE 368 144 368 64
WIRE 368 144 320 144
WIRE 400 144 368 144
WIRE 32 160 -32 160
WIRE 544 160 480 160
WIRE 400 176 368 176
WIRE 192 192 144 192
WIRE -384 256 -384 208
WIRE -304 256 -304 208
WIRE -224 256 -224 208
WIRE 256 320 256 272
FLAG -384 256 0
FLAG -304 256 0
FLAG -224 256 0
FLAG -384 64 X
IOPIN -384 64 Out
FLAG -304 64 CLK
IOPIN -304 64 Out
FLAG -224 0 RST
IOPIN -224 0 Out
FLAG -32 160 X
IOPIN -32 160 In
FLAG 368 176 X
IOPIN 368 176 In
FLAG 256 320 RST
IOPIN 256 320 In
FLAG 144 192 CLK
IOPIN 144 192 In
FLAG 544 160 Y
IOPIN 544 160 Out
SYMBOL DigitalLogic\\OR_2 64 144 R0
SYMATTR InstName U2
SYMBOL DigitalLogic\\XOR_2 448 160 R0
SYMATTR InstName U3
SYMBOL DigitalLogic\\DFF_R 256 176 R0
SYMATTR InstName U1
SYMBOL voltage -384 112 R0
WINDOW 3 -32 183 Left 2
WINDOW 123 0 0 Left 0
WINDOW 39 0 0 Left 0
SYMATTR InstName V1
SYMATTR Value PULSE(0 5 6m 1n 1n 2m 4m)
SYMBOL voltage -304 112 R0
WINDOW 3 -113 212 Left 2
WINDOW 123 0 0 Left 0
WINDOW 39 0 0 Left 0
SYMATTR InstName V2
SYMATTR Value PULSE(0 5 0 1n 1n 1m 3m)
SYMBOL voltage -224 112 R0
WINDOW 3 -191 240 Left 2
WINDOW 123 0 0 Left 0
WINDOW 39 0 0 Left 0
SYMATTR InstName V3
SYMATTR Value PULSE(0 5 18m 1n 1n 5m 10m)
SYMBOL DigitalLogic\\INV_1 -224 80 R270
SYMATTR InstName U4
TEXT -456 428 Left 2 !.tran 21m
