Version 4
SHEET 1 2632 1368
WIRE 1568 288 1344 288
WIRE 1632 288 1568 288
WIRE 1632 304 1456 304
WIRE 1776 304 1696 304
WIRE 1904 304 1840 304
WIRE 1632 320 1536 320
WIRE 1568 400 1568 288
WIRE 1632 400 1568 400
WIRE 1456 416 1456 304
WIRE 1632 416 1456 416
WIRE 1872 416 1696 416
WIRE 1632 432 1504 432
WIRE 1904 432 1904 304
WIRE 1936 432 1904 432
WIRE 1344 448 1344 288
WIRE 1872 448 1872 416
WIRE 1936 448 1872 448
WIRE 1936 464 1872 464
WIRE 2048 464 2000 464
WIRE 1936 480 1904 480
WIRE 1568 496 1568 400
WIRE 1632 496 1568 496
WIRE 1632 512 1408 512
WIRE 1776 512 1696 512
WIRE 1872 512 1872 464
WIRE 1872 512 1840 512
WIRE 1536 528 1536 320
WIRE 1632 528 1536 528
WIRE 1344 576 1344 528
WIRE 1568 608 1568 496
WIRE 1632 608 1568 608
WIRE 1408 624 1408 512
WIRE 1632 624 1408 624
WIRE 1776 624 1696 624
WIRE 1904 624 1904 480
WIRE 1904 624 1840 624
WIRE 1504 640 1504 432
WIRE 1632 640 1504 640
WIRE 1456 672 1456 416
WIRE 1536 672 1536 528
WIRE 1408 768 1408 624
WIRE 1456 768 1456 736
WIRE 1456 768 1408 768
WIRE 1504 768 1504 640
WIRE 1536 768 1536 736
WIRE 1536 768 1504 768
WIRE 1456 800 1456 768
WIRE 1536 800 1536 768
WIRE 1456 928 1456 880
WIRE 1536 928 1536 880
FLAG 1456 928 0
FLAG 1536 928 0
FLAG 1344 576 0
FLAG 2048 464 OUTPUT
IOPIN 2048 464 Out
SYMBOL voltage 1536 784 R0
WINDOW 3 -194 185 Left 2
WINDOW 123 0 0 Left 0
WINDOW 39 0 0 Left 0
SYMATTR Value PULSE(0 5 1m 1n 1n 1m 2m)
SYMATTR InstName V1
SYMBOL voltage 1456 784 R0
WINDOW 3 -114 216 Left 2
WINDOW 123 0 0 Left 0
WINDOW 39 0 0 Left 0
SYMATTR Value PULSE(0 5 2m 1n 1n 2m 4m)
SYMATTR InstName V2
SYMBOL DigitalLogic\\AND_3 1664 304 R0
SYMATTR InstName U8
SYMBOL DigitalLogic\\AND_3 1664 416 R0
SYMATTR InstName U9
SYMBOL DigitalLogic\\AND_3 1664 512 R0
SYMATTR InstName U10
SYMBOL DigitalLogic\\AND_3 1664 624 R0
SYMATTR InstName U11
SYMBOL DigitalLogic\\INV_1 1536 720 R270
SYMATTR InstName U12
SYMBOL DigitalLogic\\INV_1 1456 720 R270
SYMATTR InstName U13
SYMBOL voltage 1344 432 R0
WINDOW 3 34 91 Left 2
WINDOW 123 0 0 Left 0
WINDOW 39 0 0 Left 0
SYMATTR Value 5
SYMATTR InstName V3
SYMBOL DigitalLogic\\INV_1 1792 304 R0
SYMATTR InstName U1
SYMBOL DigitalLogic\\INV_1 1792 512 R0
SYMATTR InstName U2
SYMBOL DigitalLogic\\INV_1 1792 624 R0
SYMATTR InstName U3
SYMBOL DigitalLogic\\AND_4 1968 464 R0
SYMATTR InstName U4
TEXT 1680 776 Left 2 !.tran 4m
