Version 4
SHEET 1 880 680
WIRE 96 32 -96 32
WIRE -96 64 -96 32
WIRE -32 64 -96 64
WIRE 64 64 32 64
WIRE -96 80 -96 64
WIRE 96 80 96 32
WIRE 160 80 96 80
WIRE 64 112 64 64
WIRE 160 112 64 112
WIRE 64 144 64 112
WIRE 160 144 64 144
WIRE 96 160 96 80
WIRE 128 160 96 160
WIRE 304 160 240 160
WIRE -96 176 -96 160
WIRE 112 176 -16 176
WIRE 128 176 128 160
WIRE 160 176 128 176
WIRE 112 192 112 176
WIRE 144 192 112 192
WIRE 128 208 64 208
WIRE 144 208 144 192
WIRE 160 208 144 208
WIRE 128 240 128 208
WIRE 160 240 128 240
WIRE -16 272 -16 256
WIRE 64 304 64 288
FLAG 304 160 Y
IOPIN 304 160 Out
FLAG -96 176 0
FLAG -16 272 0
FLAG 64 304 0
SYMBOL voltage -96 64 R0
WINDOW 123 0 0 Left 0
WINDOW 39 0 0 Left 0
SYMATTR InstName V1
SYMATTR Value 5
SYMBOL voltage -16 160 R0
WINDOW 3 -172 179 Left 2
WINDOW 123 0 0 Left 0
WINDOW 39 0 0 Left 0
SYMATTR InstName V2
SYMATTR Value PULSE(0 5 0 0 0 4m 8m 4)
SYMBOL voltage 64 192 R0
WINDOW 3 -254 180 Left 2
WINDOW 123 0 0 Left 0
WINDOW 39 0 0 Left 0
SYMATTR InstName V3
SYMATTR Value PULSE(0 5 0 0 0 1m 2m 16)
SYMBOL DigitalLogic\\INV_1 -16 64 R0
SYMATTR InstName U1
SYMBOL Draft22 192 160 R0
SYMATTR InstName X1
TEXT -192 392 Left 2 !.tran 8m
