Version 4
SHEET 1 880 680
WIRE 32 64 32 16
WIRE 192 64 32 64
WIRE -368 80 -368 16
WIRE -288 80 -288 16
WIRE -208 80 -208 16
WIRE 576 80 272 80
WIRE -48 96 -48 16
WIRE 192 96 -48 96
WIRE 112 144 112 16
WIRE 192 144 112 144
WIRE 352 160 272 160
WIRE -48 176 -48 96
WIRE 192 176 -48 176
WIRE 576 176 432 176
WIRE 352 192 272 192
WIRE 32 208 32 64
WIRE 272 208 272 192
WIRE 272 208 32 208
WIRE -368 224 -368 160
WIRE -288 224 -288 160
WIRE -208 224 -208 160
WIRE -48 240 -48 176
WIRE 576 240 -48 240
FLAG -368 16 G2
IOPIN -368 16 Out
FLAG -288 16 G1
IOPIN -288 16 Out
FLAG -208 16 G0
IOPIN -208 16 Out
FLAG -48 16 G2
IOPIN -48 16 In
FLAG 32 16 G1
IOPIN 32 16 In
FLAG 112 16 G0
IOPIN 112 16 In
FLAG 576 80 B1
IOPIN 576 80 Out
FLAG 576 240 B2
IOPIN 576 240 Out
FLAG 576 176 B0
IOPIN 576 176 Out
FLAG -368 224 0
FLAG -288 224 0
FLAG -208 224 0
SYMBOL DigitalLogic\\XOR_2 240 160 R0
SYMATTR InstName U2
SYMBOL DigitalLogic\\XOR_2 400 176 R0
SYMATTR InstName U3
SYMBOL voltage -368 64 R0
WINDOW 3 -56 203 Left 2
WINDOW 123 0 0 Left 0
WINDOW 39 0 0 Left 0
SYMATTR InstName V1
SYMATTR Value PULSE(0 5 4m 1n 1n 4m 8m 1)
SYMBOL voltage -288 64 R0
WINDOW 3 -135 227 Left 2
WINDOW 123 0 0 Left 0
WINDOW 39 0 0 Left 0
SYMATTR InstName V2
SYMATTR Value PULSE(0 5 2m 1n 1n 4m 8m 1)
SYMBOL voltage -208 64 R0
WINDOW 3 -215 250 Left 2
WINDOW 123 0 0 Left 0
WINDOW 39 0 0 Left 0
SYMATTR InstName V3
SYMATTR Value PULSE(0 5 1m 1n 1n 2m 4m)
SYMBOL DigitalLogic\\XOR_2 240 80 R0
SYMATTR InstName U4
TEXT -440 348 Left 2 !.tran 8m
