Version 4
SHEET 1 2968 720
WIRE -176 112 -176 48
WIRE -80 112 -80 48
WIRE 784 192 320 192
WIRE -176 240 -176 192
WIRE -80 240 -80 192
WIRE 320 240 320 192
WIRE 368 240 320 240
WIRE 448 256 432 256
WIRE 368 272 320 272
WIRE 448 320 448 256
WIRE 480 320 448 320
WIRE 624 336 544 336
WIRE 832 336 752 336
WIRE 880 336 832 336
WIRE 480 352 448 352
WIRE 240 384 208 384
WIRE 368 384 304 384
WIRE 624 384 608 384
WIRE 448 400 448 352
WIRE 448 400 432 400
WIRE 784 400 784 192
WIRE 784 400 752 400
WIRE 880 400 784 400
WIRE 368 416 320 416
WIRE 320 464 320 416
WIRE 832 464 832 336
WIRE 832 464 320 464
WIRE -176 480 -176 416
WIRE -80 480 -80 416
WIRE -176 608 -176 560
WIRE -80 608 -80 560
FLAG -176 48 A
IOPIN -176 48 Out
FLAG -80 48 B
IOPIN -80 48 Out
FLAG -176 240 0
FLAG -80 240 0
FLAG -176 416 Clock
IOPIN -176 416 Out
FLAG -80 416 Clear
IOPIN -80 416 Out
FLAG -176 608 0
FLAG -80 608 0
FLAG 320 272 A
IOPIN 320 272 In
FLAG 608 384 Clock
IOPIN 608 384 In
FLAG 880 336 Q
IOPIN 880 336 Out
FLAG 208 384 B
IOPIN 208 384 In
FLAG 880 400 Qo
IOPIN 880 400 Out
SYMBOL voltage -176 96 R0
WINDOW 3 -59 200 Left 2
WINDOW 123 0 0 Left 0
WINDOW 39 0 0 Left 0
SYMATTR Value PULSE(0 5 0 1n 1n 2m 4m)
SYMATTR InstName V1
SYMBOL voltage -80 96 R0
WINDOW 3 -156 224 Left 2
WINDOW 123 0 0 Left 0
WINDOW 39 0 0 Left 0
SYMATTR Value PULSE(0 5 0 1n 1n 4m 8m)
SYMATTR InstName V2
SYMBOL voltage -176 464 R0
WINDOW 3 -59 200 Left 2
WINDOW 123 0 0 Left 0
WINDOW 39 0 0 Left 0
SYMATTR Value PULSE(0 5 1m 1n 1n 1m 2m)
SYMATTR InstName V3
SYMBOL voltage -80 464 R0
WINDOW 3 -156 224 Left 2
WINDOW 123 0 0 Left 0
WINDOW 39 0 0 Left 0
SYMATTR Value PULSE(0 5 0 1n 1n 4m 8m)
SYMATTR InstName V4
SYMBOL DigitalLogic\\AND_2 400 256 R0
SYMATTR InstName U2
SYMBOL DigitalLogic\\AND_2 400 400 R0
SYMATTR InstName U3
SYMBOL DigitalLogic\\OR_2 512 336 R0
SYMATTR InstName U4
SYMBOL DigitalLogic\\DFF 688 368 R0
SYMATTR InstName U5
SYMBOL DigitalLogic\\INV_1 256 384 R0
SYMATTR InstName U6
TEXT 72 72 Left 2 !.tran 32m
