Version 4
SHEET 1 1820 680
WIRE 240 -128 240 -160
WIRE 288 -128 240 -128
WIRE 336 -128 336 -160
WIRE 384 -128 336 -128
WIRE 432 -128 432 -160
WIRE 480 -128 432 -128
WIRE 528 -128 528 -160
WIRE 576 -128 528 -128
WIRE 288 -112 288 -128
WIRE 288 -112 272 -112
WIRE 304 -112 288 -112
WIRE 384 -112 384 -128
WIRE 384 -112 368 -112
WIRE 400 -112 384 -112
WIRE 480 -112 480 -128
WIRE 480 -112 464 -112
WIRE 496 -112 480 -112
WIRE 576 -112 576 -128
WIRE 576 -112 560 -112
WIRE 592 -112 576 -112
WIRE 272 -96 272 -112
WIRE 304 -96 304 -112
WIRE 368 -96 368 -112
WIRE 400 -96 400 -112
WIRE 464 -96 464 -112
WIRE 496 -96 496 -112
WIRE 560 -96 560 -112
WIRE 592 -96 592 -112
WIRE -112 -32 -112 -64
WIRE -32 -32 -32 -64
WIRE 48 -32 48 -64
WIRE 128 -32 128 -64
WIRE 240 32 240 -128
WIRE 720 32 240 32
WIRE 336 48 336 -128
WIRE 720 48 336 48
WIRE 864 48 784 48
WIRE 432 64 432 -128
WIRE 720 64 432 64
WIRE -112 96 -112 48
WIRE -32 96 -32 48
WIRE 48 96 48 48
WIRE 128 96 128 48
WIRE 240 112 240 32
WIRE 720 112 240 112
WIRE 384 128 384 -32
WIRE 720 128 384 128
WIRE 832 128 784 128
WIRE 576 144 576 -32
WIRE 720 144 576 144
WIRE 864 144 864 48
WIRE 896 144 864 144
WIRE 832 160 832 128
WIRE 896 160 832 160
WIRE 896 176 832 176
WIRE 1008 176 960 176
WIRE 288 192 288 -32
WIRE 720 192 288 192
WIRE 896 192 864 192
WIRE 384 208 384 128
WIRE 720 208 384 208
WIRE 832 208 832 176
WIRE 832 208 784 208
WIRE 432 224 432 64
WIRE 720 224 432 224
WIRE 480 272 480 -32
WIRE 720 272 480 272
WIRE 528 288 528 -128
WIRE 720 288 528 288
WIRE 864 288 864 192
WIRE 864 288 784 288
WIRE 384 304 384 208
WIRE 720 304 384 304
FLAG -112 96 0
FLAG 1008 176 Output
IOPIN 1008 176 Out
FLAG -112 -64 A
IOPIN -112 -64 Out
FLAG -32 -64 B
IOPIN -32 -64 Out
FLAG 48 -64 C
IOPIN 48 -64 Out
FLAG 128 -64 D
IOPIN 128 -64 Out
FLAG 240 -160 A
IOPIN 240 -160 Out
FLAG 336 -160 B
IOPIN 336 -160 Out
FLAG 432 -160 C
IOPIN 432 -160 Out
FLAG 528 -160 D
IOPIN 528 -160 Out
FLAG -32 96 0
FLAG 48 96 0
FLAG 128 96 0
SYMBOL voltage 128 -48 R0
WINDOW 3 -257 264 Left 2
WINDOW 123 0 0 Left 0
WINDOW 39 0 0 Left 0
SYMATTR Value PULSE(0 5 1m 1n 1n 1m 2m)
SYMATTR InstName D
SYMBOL voltage 48 -48 R0
WINDOW 3 -177 239 Left 2
WINDOW 123 0 0 Left 0
WINDOW 39 0 0 Left 0
SYMATTR Value PULSE(0 5 2m 1n 1n 2m 4m)
SYMATTR InstName C
SYMBOL voltage -32 -48 R0
WINDOW 3 -97 213 Left 2
WINDOW 123 0 0 Left 0
WINDOW 39 0 0 Left 0
SYMATTR Value PULSE(0 5 4m 1n 1n 4m 8m)
SYMATTR InstName B
SYMBOL voltage -112 -48 R0
WINDOW 3 -17 185 Left 2
WINDOW 123 0 0 Left 0
WINDOW 39 0 0 Left 0
WINDOW 0 32 17 Left 2
SYMATTR Value PULSE(0 5 8m 1n 1n 8m 16m)
SYMATTR InstName A
SYMBOL DigitalLogic\\NOR_2 288 -64 R90
SYMATTR InstName U8
SYMBOL DigitalLogic\\NOR_2 384 -64 R90
SYMATTR InstName U9
SYMBOL DigitalLogic\\NOR_2 480 -64 R90
SYMATTR InstName U10
SYMBOL DigitalLogic\\NOR_2 576 -64 R90
SYMATTR InstName U11
SYMBOL DigitalLogic\\NOR_3 752 48 R0
SYMATTR InstName U12
SYMBOL DigitalLogic\\NOR_3 752 128 R0
SYMATTR InstName U13
SYMBOL DigitalLogic\\NOR_3 752 208 R0
SYMATTR InstName U14
SYMBOL DigitalLogic\\NOR_3 752 288 R0
SYMATTR InstName U15
SYMBOL DigitalLogic\\NOR_4 928 176 R0
SYMATTR InstName U16
TEXT -48 272 Left 2 !.tran 16m
TEXT -136 -168 Left 2 ;NOR as a universal gate
