Version 4
SHEET 1 3064 1356
WIRE 128 96 96 96
WIRE 304 96 304 16
WIRE 304 96 256 96
WIRE 352 96 304 96
WIRE 528 96 528 16
WIRE 528 96 480 96
WIRE 576 96 528 96
WIRE 752 96 752 16
WIRE 752 96 704 96
WIRE 800 96 752 96
WIRE 976 96 976 16
WIRE 976 96 928 96
WIRE -336 160 -336 112
WIRE -256 160 -256 112
WIRE -176 160 -176 112
WIRE -336 272 -336 240
WIRE -256 272 -256 240
WIRE -176 272 -176 240
WIRE 192 272 64 272
WIRE 608 272 480 272
WIRE 1024 272 896 272
WIRE 1440 272 1312 272
WIRE 112 304 96 304
WIRE 192 304 176 304
WIRE 528 304 512 304
WIRE 608 304 592 304
WIRE 944 304 928 304
WIRE 1024 304 1008 304
WIRE 1360 304 1344 304
WIRE 1440 304 1424 304
WIRE 256 320 256 288
WIRE 272 320 256 320
WIRE 672 320 672 288
WIRE 688 320 672 320
WIRE 1088 320 1088 288
WIRE 1104 320 1088 320
WIRE 1504 320 1504 288
WIRE 1520 320 1504 320
WIRE 480 336 480 272
WIRE 480 336 464 336
WIRE 896 336 896 272
WIRE 896 336 880 336
WIRE 1312 336 1312 272
WIRE 1312 336 1296 336
WIRE 1744 336 1712 336
WIRE 272 352 256 352
WIRE 688 352 672 352
WIRE 1104 352 1088 352
WIRE 1520 352 1504 352
WIRE 192 368 64 368
WIRE 608 368 480 368
WIRE 1024 368 896 368
WIRE 1440 368 1312 368
WIRE 256 384 256 352
WIRE 672 384 672 352
WIRE 1088 384 1088 352
WIRE 1504 384 1504 352
WIRE 96 400 96 304
WIRE 192 400 96 400
WIRE 512 400 512 304
WIRE 608 400 512 400
WIRE 928 400 928 304
WIRE 1024 400 928 400
WIRE 1344 400 1344 304
WIRE 1440 400 1344 400
WIRE 336 416 336 384
WIRE 512 416 512 400
WIRE 752 416 752 384
WIRE 928 416 928 400
WIRE 1168 416 1168 384
WIRE 1344 416 1344 400
WIRE 1584 416 1584 384
WIRE 96 432 96 400
WIRE 64 512 64 368
WIRE 480 512 480 368
WIRE 896 512 896 368
WIRE 1312 512 1312 368
FLAG -336 272 0
FLAG -256 272 0
FLAG -336 112 Input
IOPIN -336 112 Out
FLAG 96 96 Input
IOPIN 96 96 In
FLAG -256 112 Clock
IOPIN -256 112 Out
FLAG 128 144 Clock
IOPIN 128 144 In
FLAG 352 144 Clock
IOPIN 352 144 In
FLAG 576 144 Clock
IOPIN 576 144 In
FLAG 800 144 Clock
IOPIN 800 144 In
FLAG 304 16 Po1
IOPIN 304 16 Out
FLAG 528 16 Po2
IOPIN 528 16 Out
FLAG 752 16 Po3
IOPIN 752 16 Out
FLAG 976 16 Po4
IOPIN 976 16 Out
FLAG 96 432 Clock
IOPIN 96 432 In
FLAG 512 416 Clock
IOPIN 512 416 In
FLAG 928 416 Clock
IOPIN 928 416 In
FLAG 1344 416 Clock
IOPIN 1344 416 In
FLAG 64 512 Po1
IOPIN 64 512 In
FLAG 480 512 Po2
IOPIN 480 512 In
FLAG 896 512 Po3
IOPIN 896 512 In
FLAG 1312 512 Po4
IOPIN 1312 512 In
FLAG -176 272 0
FLAG -176 112 Fin
IOPIN -176 112 Out
FLAG 64 272 Fin
IOPIN 64 272 In
FLAG 336 416 Clock
IOPIN 336 416 In
FLAG 752 416 Clock
IOPIN 752 416 In
FLAG 1168 416 Clock
IOPIN 1168 416 In
FLAG 1584 416 Clock
IOPIN 1584 416 In
FLAG 1744 336 So1
IOPIN 1744 336 Out
SYMBOL DigitalLogic\\DFF 192 128 R0
SYMATTR InstName U1
SYMBOL DigitalLogic\\DFF 416 128 R0
SYMATTR InstName U2
SYMBOL DigitalLogic\\DFF 640 128 R0
SYMATTR InstName U3
SYMBOL DigitalLogic\\DFF 864 128 R0
SYMATTR InstName U4
SYMBOL voltage -336 144 R0
WINDOW 3 -35 162 Left 2
WINDOW 123 0 0 Left 0
WINDOW 39 0 0 Left 0
SYMATTR Value PULSE(0 5 0 1n 1n 2m 4m)
SYMATTR InstName V1
SYMBOL voltage -256 144 R0
WINDOW 3 -115 188 Left 2
WINDOW 123 0 0 Left 0
WINDOW 39 0 0 Left 0
SYMATTR Value PULSE(0 5 1m 1n 1n 1m 2m)
SYMATTR InstName V2
SYMBOL DigitalLogic\\AND_2 224 288 R0
SYMATTR InstName U23
SYMBOL DigitalLogic\\AND_2 224 384 R0
SYMATTR InstName U24
SYMBOL DigitalLogic\\OR_2 304 336 R0
SYMATTR InstName U25
SYMBOL DigitalLogic\\INV_1 128 304 R0
SYMATTR InstName U26
SYMBOL DigitalLogic\\DFF 400 368 R0
SYMATTR InstName U27
SYMBOL DigitalLogic\\AND_2 640 288 R0
SYMATTR InstName U28
SYMBOL DigitalLogic\\AND_2 640 384 R0
SYMATTR InstName U29
SYMBOL DigitalLogic\\OR_2 720 336 R0
SYMATTR InstName U30
SYMBOL DigitalLogic\\INV_1 544 304 R0
SYMATTR InstName U31
SYMBOL DigitalLogic\\DFF 816 368 R0
SYMATTR InstName U32
SYMBOL DigitalLogic\\AND_2 1056 288 R0
SYMATTR InstName U33
SYMBOL DigitalLogic\\AND_2 1056 384 R0
SYMATTR InstName U34
SYMBOL DigitalLogic\\OR_2 1136 336 R0
SYMATTR InstName U35
SYMBOL DigitalLogic\\INV_1 960 304 R0
SYMATTR InstName U36
SYMBOL DigitalLogic\\DFF 1232 368 R0
SYMATTR InstName U37
SYMBOL DigitalLogic\\AND_2 1472 288 R0
SYMATTR InstName U38
SYMBOL DigitalLogic\\AND_2 1472 384 R0
SYMATTR InstName U39
SYMBOL DigitalLogic\\OR_2 1552 336 R0
SYMATTR InstName U40
SYMBOL DigitalLogic\\INV_1 1376 304 R0
SYMATTR InstName U41
SYMBOL DigitalLogic\\DFF 1648 368 R0
SYMATTR InstName U42
SYMBOL voltage -176 144 R0
WINDOW 3 -196 213 Left 2
WINDOW 123 0 0 Left 0
WINDOW 39 0 0 Left 0
SYMATTR Value 5
SYMATTR InstName V3
TEXT -360 392 Left 2 !.tran 30m
