Version 4
SHEET 1 880 708
WIRE 16 32 -32 32
WIRE 224 32 16 32
WIRE 336 32 224 32
WIRE 16 80 16 32
WIRE 48 80 16 80
WIRE 144 80 112 80
WIRE 16 128 -32 128
WIRE 448 128 16 128
WIRE 16 176 16 128
WIRE 48 176 16 176
WIRE 256 176 112 176
WIRE 16 224 -32 224
WIRE 368 224 16 224
WIRE 480 224 368 224
WIRE -320 256 -320 208
WIRE -240 256 -240 208
WIRE -160 256 -160 208
WIRE 16 272 16 224
WIRE 48 272 16 272
WIRE 144 272 112 272
WIRE 224 304 224 32
WIRE 256 304 256 176
WIRE 336 304 336 32
WIRE 368 304 368 224
WIRE 448 304 448 128
WIRE 480 304 480 224
WIRE -320 384 -320 336
WIRE -240 384 -240 336
WIRE -160 384 -160 336
WIRE 240 416 240 368
WIRE 544 416 240 416
WIRE 656 432 608 432
WIRE 352 448 352 368
WIRE 544 448 352 448
WIRE 352 512 352 448
WIRE 544 512 352 512
WIRE 656 528 608 528
WIRE 464 544 464 368
WIRE 544 544 464 544
FLAG -32 32 A
IOPIN -32 32 In
FLAG -32 128 B
IOPIN -32 128 In
FLAG -32 224 C
IOPIN -32 224 In
FLAG -320 384 0
FLAG -320 208 A
IOPIN -320 208 Out
FLAG -240 384 0
FLAG -240 208 B
IOPIN -240 208 Out
FLAG -160 384 0
FLAG -160 208 C
IOPIN -160 208 Out
FLAG 656 432 F1
IOPIN 656 432 Out
FLAG 656 528 F2
IOPIN 656 528 Out
SYMBOL DigitalLogic\\INV_1 64 80 R0
SYMATTR InstName U1
SYMBOL DigitalLogic\\INV_1 64 176 R0
SYMATTR InstName U2
SYMBOL DigitalLogic\\INV_1 64 272 R0
SYMATTR InstName U3
SYMBOL DigitalLogic\\AND_2 240 336 R90
SYMATTR InstName U4
SYMBOL DigitalLogic\\AND_2 352 336 R90
SYMATTR InstName U5
SYMBOL DigitalLogic\\AND_2 464 336 R90
SYMATTR InstName U6
SYMBOL DigitalLogic\\OR_2 576 432 R0
SYMATTR InstName U7
SYMBOL DigitalLogic\\OR_2 576 528 R0
SYMATTR InstName U8
SYMBOL voltage -320 240 R0
WINDOW 3 -31 188 Left 2
WINDOW 123 0 0 Left 0
WINDOW 39 0 0 Left 0
SYMATTR InstName V1
SYMATTR Value PULSE(0 5 4m 1n 1n 4m 8m)
SYMBOL voltage -240 240 R0
WINDOW 3 -111 213 Left 2
WINDOW 123 0 0 Left 0
WINDOW 39 0 0 Left 0
SYMATTR InstName V2
SYMATTR Value PULSE(0 5 2m 1n 1n 2m 4m)
SYMBOL voltage -160 240 R0
WINDOW 3 -191 238 Left 2
WINDOW 123 0 0 Left 0
WINDOW 39 0 0 Left 0
SYMATTR InstName V3
SYMATTR Value PULSE(0 5 1m 1n 1n 1m 2m)
