Version 4
SHEET 1 952 680
WIRE -336 112 -336 64
WIRE -256 112 -256 64
WIRE 32 112 0 112
WIRE 208 112 208 32
WIRE 208 112 160 112
WIRE 256 112 208 112
WIRE 432 112 432 32
WIRE 432 112 384 112
WIRE 480 112 432 112
WIRE 656 112 656 32
WIRE 656 112 608 112
WIRE 704 112 656 112
WIRE 880 112 880 32
WIRE 880 112 832 112
WIRE -336 224 -336 192
WIRE -256 224 -256 192
WIRE 32 384 0 384
WIRE 256 384 160 384
WIRE 480 384 384 384
WIRE 704 384 608 384
WIRE 880 384 880 304
WIRE 880 384 832 384
FLAG -336 224 0
FLAG -256 224 0
FLAG -336 64 Input
IOPIN -336 64 Out
FLAG 0 112 Input
IOPIN 0 112 In
FLAG -256 64 Clock
IOPIN -256 64 Out
FLAG 32 160 Clock
IOPIN 32 160 In
FLAG 256 160 Clock
IOPIN 256 160 In
FLAG 480 160 Clock
IOPIN 480 160 In
FLAG 704 160 Clock
IOPIN 704 160 In
FLAG 208 32 Po1
IOPIN 208 32 Out
FLAG 432 32 Po2
IOPIN 432 32 Out
FLAG 656 32 Po3
IOPIN 656 32 Out
FLAG 880 32 Po4
IOPIN 880 32 Out
FLAG 0 384 Input
IOPIN 0 384 In
FLAG 32 432 Clock
IOPIN 32 432 In
FLAG 256 432 Clock
IOPIN 256 432 In
FLAG 480 432 Clock
IOPIN 480 432 In
FLAG 704 432 Clock
IOPIN 704 432 In
FLAG 880 304 So
IOPIN 880 304 Out
SYMBOL DigitalLogic\\DFF 96 144 R0
SYMATTR InstName U1
SYMBOL DigitalLogic\\DFF 320 144 R0
SYMATTR InstName U2
SYMBOL DigitalLogic\\DFF 544 144 R0
SYMATTR InstName U3
SYMBOL DigitalLogic\\DFF 768 144 R0
SYMATTR InstName U4
SYMBOL voltage -336 96 R0
WINDOW 3 -35 162 Left 2
WINDOW 123 0 0 Left 0
WINDOW 39 0 0 Left 0
SYMATTR InstName V1
SYMATTR Value PULSE(0 5 0 1n 1n 2m 4m)
SYMBOL voltage -256 96 R0
WINDOW 3 -115 188 Left 2
WINDOW 123 0 0 Left 0
WINDOW 39 0 0 Left 0
SYMATTR InstName V2
SYMATTR Value PULSE(0 5 1m 1n 1n 1m 2m)
SYMBOL DigitalLogic\\DFF 96 416 R0
SYMATTR InstName U5
SYMBOL DigitalLogic\\DFF 320 416 R0
SYMATTR InstName U6
SYMBOL DigitalLogic\\DFF 544 416 R0
SYMATTR InstName U7
SYMBOL DigitalLogic\\DFF 768 416 R0
SYMATTR InstName U8
TEXT -360 344 Left 2 !.tran 16m
