Version 4
SHEET 1 984 700
WIRE 800 32 432 32
WIRE 432 80 432 32
WIRE 480 80 432 80
WIRE 432 96 400 96
WIRE 480 96 432 96
WIRE 704 96 544 96
WIRE 480 112 448 112
WIRE 816 112 768 112
WIRE 832 112 816 112
WIRE 880 112 832 112
WIRE 704 128 672 128
WIRE 16 144 16 80
WIRE 96 144 96 80
WIRE 176 144 176 80
WIRE 816 160 816 112
WIRE 816 160 656 160
WIRE 448 192 448 112
WIRE 448 192 400 192
WIRE 672 208 672 128
WIRE 784 208 672 208
WIRE 656 240 656 160
WIRE 704 240 656 240
WIRE 448 256 448 192
WIRE 480 256 448 256
WIRE 784 256 784 208
WIRE 784 256 768 256
WIRE 800 256 800 32
WIRE 800 256 784 256
WIRE 880 256 800 256
WIRE 432 272 432 96
WIRE 480 272 432 272
WIRE 704 272 544 272
WIRE 16 288 16 224
WIRE 96 288 96 224
WIRE 176 288 176 224
WIRE 480 288 432 288
WIRE 432 336 432 288
WIRE 832 336 832 112
WIRE 832 336 432 336
WIRE 800 368 432 368
WIRE 432 416 432 368
WIRE 480 416 432 416
WIRE 480 432 400 432
WIRE 704 432 544 432
WIRE 480 448 448 448
WIRE 816 448 768 448
WIRE 832 448 816 448
WIRE 880 448 832 448
WIRE 704 464 672 464
WIRE 816 496 816 448
WIRE 816 496 656 496
WIRE 448 528 448 448
WIRE 448 528 400 528
WIRE 672 544 672 464
WIRE 784 544 672 544
WIRE 656 576 656 496
WIRE 704 576 656 576
WIRE 448 592 448 528
WIRE 480 592 448 592
WIRE 784 592 784 544
WIRE 784 592 768 592
WIRE 800 592 800 368
WIRE 800 592 784 592
WIRE 880 592 800 592
WIRE 480 608 400 608
WIRE 704 608 544 608
WIRE 480 624 432 624
WIRE 432 672 432 624
WIRE 832 672 832 448
WIRE 832 672 432 672
FLAG 16 80 T
IOPIN 16 80 Out
FLAG 96 80 Clock
IOPIN 96 80 Out
FLAG 400 96 T
IOPIN 400 96 In
FLAG 400 192 Clock
IOPIN 400 192 In
FLAG 880 112 Q1
IOPIN 880 112 Out
FLAG 880 256 Qo1
IOPIN 880 256 Out
FLAG 400 432 T
IOPIN 400 432 In
FLAG 400 528 Clock
IOPIN 400 528 In
FLAG 880 448 Q2
IOPIN 880 448 Out
FLAG 880 592 Qo2
IOPIN 880 592 Out
FLAG 176 80 K
IOPIN 176 80 Out
FLAG 400 608 K
IOPIN 400 608 In
FLAG 16 288 0
FLAG 96 288 0
FLAG 176 288 0
SYMBOL DigitalLogic\\NAND_3 512 96 R0
SYMATTR InstName U1
SYMBOL DigitalLogic\\NAND_3 512 272 R0
SYMATTR InstName U2
SYMBOL DigitalLogic\\NAND_2 736 112 R0
SYMATTR InstName U3
SYMBOL DigitalLogic\\NAND_2 736 256 R0
SYMATTR InstName U4
SYMBOL DigitalLogic\\NAND_3 512 432 R0
SYMATTR InstName U5
SYMBOL DigitalLogic\\NAND_3 512 608 R0
SYMATTR InstName U6
SYMBOL DigitalLogic\\NAND_2 736 448 R0
SYMATTR InstName U7
SYMBOL DigitalLogic\\NAND_2 736 592 R0
SYMATTR InstName U8
SYMBOL voltage 16 128 R0
WINDOW 3 -53 198 Left 2
WINDOW 123 0 0 Left 0
WINDOW 39 0 0 Left 0
SYMATTR Value PULSE(0 5 1m 1n 1n 1m 2m)
SYMATTR InstName V1
SYMBOL voltage 96 128 R0
WINDOW 3 -131 251 Left 2
WINDOW 123 0 0 Left 0
WINDOW 39 0 0 Left 0
SYMATTR Value PULSE(0 5 0 1n 1n 1m 2m)
SYMATTR InstName V2
SYMBOL voltage 176 128 R0
WINDOW 3 -213 225 Left 2
WINDOW 123 0 0 Left 0
WINDOW 39 0 0 Left 0
SYMATTR Value PULSE(0 5 0 1n 1n 2m 4m)
SYMATTR InstName V3
TEXT 64 440 Left 2 !.tran 16m
