Version 4
SHEET 1 4692 3668
WIRE 1952 -368 1920 -368
WIRE 2576 -368 2016 -368
WIRE 800 -352 768 -352
WIRE 928 -352 800 -352
WIRE 1024 -336 992 -336
WIRE 928 -320 896 -320
WIRE 1920 -320 1920 -368
WIRE 1920 -320 1808 -320
WIRE 1952 -320 1920 -320
WIRE 2576 -320 2576 -368
WIRE 2672 -320 2576 -320
WIRE 800 -304 800 -352
WIRE 816 -304 800 -304
WIRE 1024 -304 1024 -336
WIRE 1056 -304 1024 -304
WIRE 2288 -304 2016 -304
WIRE 896 -288 896 -320
WIRE 896 -288 880 -288
WIRE 1152 -288 1120 -288
WIRE 1952 -288 1888 -288
WIRE 2480 -288 2352 -288
WIRE 448 -272 448 -320
WIRE 816 -272 800 -272
WIRE 1056 -272 1024 -272
WIRE 2288 -272 2224 -272
WIRE 896 -256 896 -288
WIRE 928 -256 896 -256
WIRE 1536 -256 1536 -320
WIRE 1024 -240 1024 -272
WIRE 1024 -240 992 -240
WIRE 800 -224 800 -272
WIRE 800 -224 768 -224
WIRE 928 -224 800 -224
WIRE 1888 -224 1888 -288
WIRE 1888 -224 1808 -224
WIRE 2480 -224 2480 -288
WIRE 2672 -224 2480 -224
WIRE 496 -160 496 -320
WIRE 848 -160 800 -160
WIRE 1920 -160 1920 -320
WIRE 1952 -160 1920 -160
WIRE 800 -144 800 -160
WIRE 800 -144 768 -144
WIRE 944 -144 912 -144
WIRE 1584 -144 1584 -320
WIRE 2080 -144 2016 -144
WIRE 2128 -144 2080 -144
WIRE 2224 -144 2224 -272
WIRE 2224 -144 2192 -144
WIRE 2288 -144 2224 -144
WIRE 800 -128 800 -144
WIRE 848 -128 800 -128
WIRE 1856 -128 1808 -128
WIRE 1888 -128 1888 -224
WIRE 1952 -128 1888 -128
WIRE 2672 -128 2576 -128
WIRE 2288 -112 2032 -112
WIRE 944 -96 944 -144
WIRE 992 -96 944 -96
WIRE 1104 -96 1072 -96
WIRE 1856 -96 1856 -128
WIRE 2032 -96 2032 -112
WIRE 2032 -96 1856 -96
WIRE 1072 -80 1072 -96
WIRE 1072 -80 1056 -80
WIRE 1200 -80 1168 -80
WIRE 2352 -80 2352 -128
WIRE 2464 -80 2352 -80
WIRE 992 -64 944 -64
WIRE 1072 -64 1072 -80
WIRE 1104 -64 1072 -64
WIRE 2576 -64 2576 -128
WIRE 2576 -64 2528 -64
WIRE 2464 -48 2352 -48
WIRE 448 -32 448 -192
WIRE 496 -32 496 -80
WIRE 848 -32 800 -32
WIRE 1632 -32 1632 -320
WIRE 1824 -32 1808 -32
WIRE 2080 -32 2080 -144
WIRE 2288 -32 2080 -32
WIRE 2672 -32 2576 -32
WIRE 800 -16 800 -32
WIRE 800 -16 768 -16
WIRE 944 -16 944 -64
WIRE 944 -16 912 -16
WIRE 2352 -16 2352 -48
WIRE 800 0 800 -16
WIRE 848 0 800 0
WIRE 1856 0 1856 -96
WIRE 1952 0 1856 0
WIRE 2288 0 2016 0
WIRE 2080 48 2080 -32
WIRE 2288 48 2080 48
WIRE 1680 64 1680 -320
WIRE 2464 64 2352 64
WIRE 848 80 800 80
WIRE 1856 80 1856 0
WIRE 2288 80 1856 80
WIRE 2576 80 2576 -32
WIRE 2576 80 2528 80
WIRE 800 96 800 80
WIRE 800 96 768 96
WIRE 928 96 912 96
WIRE 2464 96 2352 96
WIRE 800 112 800 96
WIRE 848 112 800 112
WIRE 1824 112 1824 -32
WIRE 2352 112 2352 96
WIRE 2352 112 1824 112
WIRE 928 144 928 96
WIRE 960 144 928 144
WIRE 1040 160 1024 160
WIRE 960 176 928 176
WIRE 1536 176 1536 -176
WIRE 1584 176 1584 -64
WIRE 1632 176 1632 48
WIRE 1680 176 1680 144
WIRE 848 208 832 208
WIRE 1040 208 1040 160
WIRE 1072 208 1040 208
WIRE 832 224 832 208
WIRE 832 224 768 224
WIRE 928 224 928 176
WIRE 928 224 912 224
WIRE 1184 224 1136 224
WIRE 832 240 832 224
WIRE 848 240 832 240
WIRE 1072 240 1040 240
WIRE 832 288 832 240
WIRE 960 288 832 288
WIRE 1040 304 1040 240
WIRE 1040 304 1024 304
WIRE 800 320 800 112
WIRE 960 320 800 320
WIRE -144 512 -176 512
WIRE 32 512 -144 512
WIRE 368 528 112 528
WIRE 32 544 -112 544
WIRE -144 592 -144 512
WIRE -80 592 -144 592
WIRE 32 592 -16 592
WIRE -496 608 -496 544
WIRE 368 608 96 608
WIRE 2272 608 2272 560
WIRE 2368 608 2368 560
WIRE 2464 608 2464 560
WIRE 2560 608 2560 560
WIRE -112 624 -112 544
WIRE -112 624 -176 624
WIRE 32 624 -112 624
WIRE 960 640 960 576
WIRE 1072 640 1072 576
WIRE 1584 704 1584 656
WIRE 1792 704 1792 656
WIRE -448 720 -448 544
WIRE -144 720 -176 720
WIRE 32 720 -144 720
WIRE 2320 720 2320 560
WIRE 2416 720 2416 560
WIRE 2512 720 2512 560
WIRE 2608 720 2608 560
WIRE 368 736 96 736
WIRE 896 736 896 576
WIRE 1024 736 1024 576
WIRE 32 752 -112 752
WIRE 1792 800 1792 784
WIRE -144 816 -144 720
WIRE 32 816 -144 816
WIRE 1632 816 1632 656
WIRE -400 832 -400 544
WIRE 368 832 112 832
WIRE 960 832 960 720
WIRE 1072 832 1072 720
WIRE -112 848 -112 752
WIRE -112 848 -176 848
WIRE 32 848 -112 848
WIRE 2272 848 2272 688
WIRE 2320 848 2320 800
WIRE 2368 848 2368 688
WIRE 2416 848 2416 800
WIRE 2464 848 2464 688
WIRE 2512 848 2512 800
WIRE 2560 848 2560 688
WIRE 2608 848 2608 800
WIRE 1792 896 1792 880
WIRE 896 928 896 816
WIRE 1024 928 1024 816
WIRE -128 944 -176 944
WIRE -64 944 -128 944
WIRE 1584 944 1584 784
WIRE 1632 944 1632 896
WIRE -496 960 -496 688
WIRE -448 960 -448 800
WIRE -400 960 -400 912
WIRE 80 960 16 960
WIRE 224 960 80 960
WIRE -64 976 -96 976
WIRE 368 976 304 976
WIRE 224 992 48 992
WIRE 48 1008 48 992
WIRE 48 1008 -160 1008
WIRE 1792 1008 1792 976
WIRE 80 1024 80 960
WIRE 112 1024 80 1024
WIRE -96 1040 -96 976
WIRE -96 1040 -176 1040
WIRE 192 1040 176 1040
WIRE -160 1056 -160 1008
WIRE 0 1056 -160 1056
WIRE 112 1056 64 1056
WIRE 192 1072 192 1040
WIRE 224 1072 192 1072
WIRE 896 1072 896 1008
WIRE 960 1072 960 912
WIRE 1024 1072 1024 1008
WIRE 1072 1072 1072 912
WIRE 368 1088 288 1088
WIRE 224 1104 192 1104
WIRE -128 1120 -128 944
WIRE 0 1120 -128 1120
WIRE 112 1120 64 1120
WIRE -160 1136 -160 1056
WIRE -160 1136 -176 1136
WIRE 192 1136 192 1104
WIRE 192 1136 176 1136
WIRE -96 1152 -96 1040
WIRE 112 1152 -96 1152
WIRE 1296 1184 1008 1184
WIRE 1888 1184 1680 1184
WIRE 1936 1184 1888 1184
WIRE 1296 1200 1120 1200
WIRE 1424 1200 1360 1200
WIRE 1936 1200 1728 1200
WIRE 2032 1200 2000 1200
WIRE 2384 1200 2336 1200
WIRE 2624 1200 2416 1200
WIRE 1296 1216 1232 1216
WIRE 1936 1216 1840 1216
WIRE 2624 1216 2448 1216
WIRE 2384 1232 2336 1232
WIRE 2624 1232 2480 1232
WIRE 2720 1232 2688 1232
WIRE 2624 1248 2512 1248
WIRE -80 1264 -176 1264
WIRE -48 1264 -80 1264
WIRE 80 1280 32 1280
WIRE 224 1280 80 1280
WIRE 2368 1280 2336 1280
WIRE -48 1296 -112 1296
WIRE 368 1296 304 1296
WIRE 1296 1296 1008 1296
WIRE 1888 1296 1888 1184
WIRE 1936 1296 1888 1296
WIRE 224 1312 48 1312
WIRE 1120 1312 1120 1200
WIRE 1296 1312 1120 1312
WIRE 1392 1312 1360 1312
WIRE 1728 1312 1728 1200
WIRE 1936 1312 1728 1312
WIRE 2032 1312 2000 1312
WIRE 2352 1312 2336 1312
WIRE 2368 1312 2368 1280
WIRE 2624 1312 2368 1312
WIRE 48 1328 48 1312
WIRE 48 1328 -144 1328
WIRE 1296 1328 1184 1328
WIRE 1936 1328 1792 1328
WIRE 2352 1328 2352 1312
WIRE 2544 1328 2352 1328
WIRE 2624 1328 2544 1328
WIRE 1424 1344 1424 1200
WIRE 1440 1344 1424 1344
WIRE 2480 1344 2480 1232
WIRE 2624 1344 2480 1344
WIRE 2720 1344 2688 1344
WIRE -112 1360 -112 1296
WIRE -112 1360 -176 1360
WIRE 80 1360 80 1280
WIRE 112 1360 80 1360
WIRE 1392 1360 1392 1312
WIRE 1440 1360 1392 1360
WIRE 2416 1360 2416 1200
WIRE 2416 1360 2336 1360
WIRE 2512 1360 2512 1248
WIRE 2624 1360 2512 1360
WIRE 192 1376 176 1376
WIRE 1440 1376 1392 1376
WIRE 1536 1376 1504 1376
WIRE -144 1392 -144 1328
WIRE 112 1392 -144 1392
WIRE 1440 1392 1424 1392
WIRE 2448 1392 2448 1216
WIRE 2448 1392 2336 1392
WIRE 192 1424 192 1376
WIRE 224 1424 192 1424
WIRE 1296 1424 1008 1424
WIRE 1888 1424 1888 1296
WIRE 1936 1424 1888 1424
WIRE 2384 1424 2384 1232
WIRE 2624 1424 2384 1424
WIRE 368 1440 288 1440
WIRE 1296 1440 1072 1440
WIRE 1392 1440 1392 1376
WIRE 1392 1440 1360 1440
WIRE 1936 1440 1680 1440
WIRE 2032 1440 2000 1440
WIRE 2480 1440 2480 1344
WIRE 2480 1440 2336 1440
WIRE 2544 1440 2544 1328
WIRE 2624 1440 2544 1440
WIRE -144 1456 -144 1392
WIRE -144 1456 -176 1456
WIRE -112 1456 -112 1360
WIRE -48 1456 -112 1456
WIRE 224 1456 80 1456
WIRE 1232 1456 1232 1216
WIRE 1296 1456 1232 1456
WIRE 1840 1456 1840 1216
WIRE 1936 1456 1840 1456
WIRE 2448 1456 2448 1392
WIRE 2624 1456 2448 1456
WIRE 2720 1456 2688 1456
WIRE 80 1472 80 1456
WIRE 80 1472 16 1472
WIRE 2512 1472 2512 1360
WIRE 2512 1472 2336 1472
WIRE 2624 1472 2512 1472
WIRE -80 1488 -80 1264
WIRE -48 1488 -80 1488
WIRE 1296 1536 1008 1536
WIRE 1888 1536 1888 1424
WIRE 1936 1536 1888 1536
WIRE 1072 1552 1072 1440
WIRE 1296 1552 1072 1552
WIRE 1424 1552 1424 1392
WIRE 1424 1552 1360 1552
WIRE 1680 1552 1680 1440
WIRE 1936 1552 1680 1552
WIRE 2032 1552 2000 1552
WIRE 1184 1568 1184 1328
WIRE 1296 1568 1184 1568
WIRE 1792 1568 1792 1328
WIRE 1936 1568 1792 1568
WIRE 1120 1600 1120 1312
WIRE 1232 1600 1232 1456
WIRE 1728 1600 1728 1312
WIRE 1840 1600 1840 1456
WIRE 1072 1696 1072 1552
WIRE 1120 1696 1120 1664
WIRE 1120 1696 1072 1696
WIRE 1184 1696 1184 1568
WIRE 1232 1696 1232 1664
WIRE 1232 1696 1184 1696
WIRE 1680 1696 1680 1552
WIRE 1728 1696 1728 1664
WIRE 1728 1696 1680 1696
WIRE 1792 1696 1792 1568
WIRE 1840 1696 1840 1664
WIRE 1840 1696 1792 1696
WIRE 512 1728 32 1728
WIRE 1120 1728 1120 1696
WIRE 1232 1728 1232 1696
WIRE 1728 1728 1728 1696
WIRE 1840 1728 1840 1696
WIRE 32 1776 32 1728
WIRE 32 1776 -16 1776
WIRE 64 1776 32 1776
WIRE 144 1776 128 1776
WIRE 304 1792 208 1792
WIRE 480 1792 432 1792
WIRE 144 1808 112 1808
WIRE -320 1840 -320 1792
WIRE 304 1840 256 1840
WIRE 512 1888 512 1728
WIRE 544 1888 512 1888
WIRE 112 1904 112 1808
WIRE 432 1904 112 1904
WIRE 656 1904 608 1904
WIRE 480 1920 480 1792
WIRE 544 1920 480 1920
WIRE -320 1936 -320 1920
WIRE -240 1936 -240 1792
WIRE 32 1952 32 1776
WIRE 304 1952 32 1952
WIRE 432 1952 432 1904
WIRE 256 2000 256 1840
WIRE 256 2000 -16 2000
WIRE 304 2000 256 2000
WIRE -320 2032 -320 2016
WIRE -320 2144 -320 2112
WIRE -240 2144 -240 2016
WIRE 1056 2192 1056 2128
WIRE 1840 2192 1840 2128
WIRE 1520 2208 1472 2208
WIRE 1696 2208 1648 2208
WIRE 2240 2224 2096 2224
WIRE 2336 2240 2304 2240
WIRE 1520 2256 1472 2256
WIRE 2144 2256 2128 2256
WIRE 2240 2256 2208 2256
WIRE 1696 2272 1648 2272
WIRE 2336 2272 2336 2240
WIRE 2352 2272 2336 2272
WIRE 2208 2288 2096 2288
WIRE 2464 2288 2416 2288
WIRE 1104 2304 1104 2128
WIRE 1888 2304 1888 2128
WIRE 2352 2304 2336 2304
WIRE 2208 2336 2208 2288
WIRE 2240 2336 2208 2336
WIRE 2336 2352 2336 2304
WIRE 2336 2352 2304 2352
WIRE 2128 2368 2128 2256
WIRE 2128 2368 2096 2368
WIRE 2240 2368 2128 2368
WIRE 1584 2384 1584 2336
WIRE 1152 2416 1152 2128
WIRE 1936 2416 1936 2128
WIRE 1056 2544 1056 2272
WIRE 1104 2544 1104 2384
WIRE 1152 2544 1152 2496
WIRE 1840 2544 1840 2272
WIRE 1888 2544 1888 2384
WIRE 1936 2544 1936 2496
WIRE -656 2752 -656 2704
WIRE -560 2752 -560 2704
WIRE -400 2816 -400 2704
WIRE 48 2816 48 2752
WIRE 64 2816 48 2816
WIRE 240 2816 240 2752
WIRE 240 2816 192 2816
WIRE 336 2816 336 2752
WIRE 512 2816 512 2752
WIRE 512 2816 464 2816
WIRE -608 2864 -608 2704
WIRE -512 2864 -512 2704
WIRE 64 2864 16 2864
WIRE 336 2864 272 2864
WIRE 1456 2880 1424 2880
WIRE 1632 2880 1584 2880
WIRE 1456 2928 1424 2928
WIRE 1056 2944 1056 2880
WIRE 1632 2944 1584 2944
WIRE 16 2960 16 2864
WIRE 16 2960 -32 2960
WIRE 272 2960 272 2864
WIRE 272 2960 16 2960
WIRE -656 2992 -656 2832
WIRE -608 2992 -608 2944
WIRE -560 2992 -560 2832
WIRE -512 2992 -512 2944
WIRE -400 2992 -400 2896
WIRE 64 3056 48 3056
WIRE 240 3056 192 3056
WIRE 336 3056 320 3056
WIRE 496 3056 464 3056
WIRE 1104 3056 1104 2880
WIRE 1520 3056 1520 3008
WIRE 16 3104 16 2960
WIRE 64 3104 16 3104
WIRE 272 3104 272 2960
WIRE 336 3104 272 3104
WIRE 48 3168 48 3056
WIRE 240 3168 240 3056
WIRE 320 3168 320 3056
WIRE 496 3168 496 3056
WIRE 1152 3168 1152 2880
WIRE 1056 3296 1056 3024
WIRE 1104 3296 1104 3136
WIRE 1152 3296 1152 3248
FLAG 768 -352 A1
IOPIN 768 -352 In
FLAG 768 -144 A1
IOPIN 768 -144 In
FLAG 768 96 A1
IOPIN 768 96 In
FLAG 768 -224 B1
IOPIN 768 -224 In
FLAG 768 -16 B1
IOPIN 768 -16 In
FLAG 768 224 B1
IOPIN 768 224 In
FLAG 1152 -288 X1
IOPIN 1152 -288 Out
FLAG 1200 -80 Y1
IOPIN 1200 -80 Out
FLAG 1184 224 Z1
IOPIN 1184 224 Out
FLAG 496 -32 0
FLAG 448 -32 0
FLAG 448 -320 A1
IOPIN 448 -320 Out
FLAG 496 -320 B1
IOPIN 496 -320 Out
FLAG -496 544 A2
IOPIN -496 544 Out
FLAG -448 544 B2
IOPIN -448 544 Out
FLAG -400 544 C2
IOPIN -400 544 Out
FLAG -400 960 0
FLAG -448 960 0
FLAG -496 960 0
FLAG -176 512 A2
IOPIN -176 512 In
FLAG -176 720 A2
IOPIN -176 720 In
FLAG -176 944 A2
IOPIN -176 944 In
FLAG -176 1264 A2
IOPIN -176 1264 In
FLAG -176 624 B2
IOPIN -176 624 In
FLAG -176 848 B2
IOPIN -176 848 In
FLAG -176 1040 B2
IOPIN -176 1040 In
FLAG -176 1360 B2
IOPIN -176 1360 In
FLAG -176 1136 C2
IOPIN -176 1136 In
FLAG -176 1456 C2
IOPIN -176 1456 In
FLAG 368 528 CARRY-Half-Subtractator
IOPIN 368 528 Out
FLAG 368 832 CARRY-Half-Adder
IOPIN 368 832 Out
FLAG 368 1088 CARRY-Full-Subtractator
IOPIN 368 1088 Out
FLAG 368 1440 CARRY-Full-Adder
IOPIN 368 1440 Out
FLAG 368 608 SUM-Half-Subtractator
IOPIN 368 608 Out
FLAG 368 736 SUM-Half-Adder
IOPIN 368 736 Out
FLAG 368 976 SUM-Full-Subtractator
IOPIN 368 976 Out
FLAG 368 1296 SUM-Full-Adder
IOPIN 368 1296 Out
FLAG 1536 -320 D3
IOPIN 1536 -320 Out
FLAG 1584 -320 C3
IOPIN 1584 -320 Out
FLAG 1632 -320 B3
IOPIN 1632 -320 Out
FLAG 1632 176 0
FLAG 1584 176 0
FLAG 1536 176 0
FLAG 1680 -320 A3
IOPIN 1680 -320 Out
FLAG 1680 176 0
FLAG 1808 -32 A3
IOPIN 1808 -32 In
FLAG 1808 -128 B3
IOPIN 1808 -128 In
FLAG 1808 -224 C3
IOPIN 1808 -224 In
FLAG 1808 -320 D3
IOPIN 1808 -320 In
FLAG 2672 -320 Z3
IOPIN 2672 -320 Out
FLAG 2672 -224 Y3
IOPIN 2672 -224 Out
FLAG 2672 -128 X3
IOPIN 2672 -128 Out
FLAG 2672 -32 W3
IOPIN 2672 -32 Out
FLAG 896 576 D0-MUX
IOPIN 896 576 Out
FLAG 960 576 D1-MUX
IOPIN 960 576 Out
FLAG 1024 576 D2-MUX
IOPIN 1024 576 Out
FLAG 1072 576 D3-MUX
IOPIN 1072 576 Out
FLAG 896 1072 0
FLAG 960 1072 0
FLAG 1024 1072 0
FLAG 1072 1072 0
FLAG 1632 944 0
FLAG 1584 944 0
FLAG 1584 656 A4
IOPIN 1584 656 Out
FLAG 1632 656 B4
IOPIN 1632 656 Out
FLAG 1008 1184 D0-MUX
IOPIN 1008 1184 In
FLAG 1008 1296 D1-MUX
IOPIN 1008 1296 In
FLAG 1008 1424 D2-MUX
IOPIN 1008 1424 In
FLAG 1008 1536 D3-MUX
IOPIN 1008 1536 In
FLAG 1120 1728 A4
IOPIN 1120 1728 In
FLAG 1232 1728 B4
IOPIN 1232 1728 In
FLAG 1536 1376 4-1-MUX
IOPIN 1536 1376 Out
FLAG 1792 1008 0
FLAG 1792 656 1-4-DEMUX
IOPIN 1792 656 Out
FLAG 1680 1184 1-4-DEMUX
IOPIN 1680 1184 In
FLAG 1728 1728 A4
IOPIN 1728 1728 In
FLAG 1840 1728 B4
IOPIN 1840 1728 In
FLAG 2032 1200 D0-DEMUX
IOPIN 2032 1200 In
FLAG 2032 1312 D1-DEMUX
IOPIN 2032 1312 In
FLAG 2032 1440 D2-DEMUX
IOPIN 2032 1440 In
FLAG 2032 1552 D3-DEMUX
IOPIN 2032 1552 In
FLAG 2320 848 0
FLAG 2272 848 0
FLAG 2272 560 x0
IOPIN 2272 560 Out
FLAG 2320 560 x1
IOPIN 2320 560 Out
FLAG 2416 848 0
FLAG 2368 848 0
FLAG 2368 560 x2
IOPIN 2368 560 Out
FLAG 2416 560 x3
IOPIN 2416 560 Out
FLAG 2512 848 0
FLAG 2464 848 0
FLAG 2464 560 x4
IOPIN 2464 560 Out
FLAG 2512 560 x5
IOPIN 2512 560 Out
FLAG 2608 848 0
FLAG 2560 848 0
FLAG 2560 560 x6
IOPIN 2560 560 Out
FLAG 2608 560 x7
IOPIN 2608 560 Out
FLAG 2336 1200 x0
IOPIN 2336 1200 In
FLAG 2336 1232 x1
IOPIN 2336 1232 In
FLAG 2336 1280 x2
IOPIN 2336 1280 In
FLAG 2336 1312 x3
IOPIN 2336 1312 In
FLAG 2336 1360 x4
IOPIN 2336 1360 In
FLAG 2336 1392 x5
IOPIN 2336 1392 In
FLAG 2336 1440 x6
IOPIN 2336 1440 In
FLAG 2336 1472 x7
IOPIN 2336 1472 In
FLAG 2720 1232 X4
IOPIN 2720 1232 Out
FLAG 2720 1344 Y4
IOPIN 2720 1344 Out
FLAG 2720 1456 Z4
IOPIN 2720 1456 Out
FLAG 1056 2128 Reset-DFF
IOPIN 1056 2128 Out
FLAG 1104 2128 Clock-DFF
IOPIN 1104 2128 Out
FLAG 1152 2128 D-Input-DFF
IOPIN 1152 2128 Out
FLAG 1152 2544 0
FLAG 1104 2544 0
FLAG 1056 2544 0
FLAG 1840 2128 D0
IOPIN 1840 2128 Out
FLAG 1888 2128 D1
IOPIN 1888 2128 Out
FLAG 1936 2128 s
IOPIN 1936 2128 Out
FLAG 1936 2544 0
FLAG 1888 2544 0
FLAG 1840 2544 0
FLAG 1056 2880 Reset-TFF
IOPIN 1056 2880 Out
FLAG 1104 2880 Clock-TFF
IOPIN 1104 2880 Out
FLAG 1152 2880 T-Input-TFF
IOPIN 1152 2880 Out
FLAG 1152 3296 0
FLAG 1104 3296 0
FLAG 1056 3296 0
FLAG 1472 2208 D-Input-DFF
IOPIN 1472 2208 In
FLAG 1472 2256 Clock-DFF
IOPIN 1472 2256 In
FLAG 1584 2384 Reset-DFF
IOPIN 1584 2384 In
FLAG 1424 2880 T-Input-TFF
IOPIN 1424 2880 In
FLAG 1424 2928 Clock-DFF
IOPIN 1424 2928 In
FLAG 1520 3056 Reset-TFF
IOPIN 1520 3056 In
FLAG 2464 2288 Y5
IOPIN 2464 2288 Out
FLAG 2096 2224 D0
IOPIN 2096 2224 In
FLAG 2096 2288 D1
IOPIN 2096 2288 In
FLAG 2096 2368 s
IOPIN 2096 2368 In
FLAG 1696 2208 Q
IOPIN 1696 2208 Out
FLAG 1696 2272 Qo
IOPIN 1696 2272 Out
FLAG 1632 2880 Q1
IOPIN 1632 2880 Out
FLAG 1632 2944 Q1o
IOPIN 1632 2944 Out
FLAG -320 2144 0
FLAG -320 1792 X-Input-6
IOPIN -320 1792 Out
FLAG -240 2144 0
FLAG -240 1792 Clock6
IOPIN -240 1792 Out
FLAG -16 1776 Clock6
IOPIN -16 1776 In
FLAG -16 2000 X-Input-6
IOPIN -16 2000 In
FLAG 656 1904 Z6
IOPIN 656 1904 Out
FLAG -608 2992 0
FLAG -656 2992 0
FLAG -656 2704 D1-Input-6
IOPIN -656 2704 Out
FLAG -608 2704 D2-Input-6
IOPIN -608 2704 Out
FLAG -512 2992 0
FLAG -560 2992 0
FLAG -560 2704 D3-Input-6
IOPIN -560 2704 Out
FLAG -512 2704 D4-Input-6
IOPIN -512 2704 Out
FLAG 48 2752 D1-Input-6
IOPIN 48 2752 Out
FLAG 336 2752 D2-Input-6
IOPIN 336 2752 Out
FLAG 48 3168 D3-Input-6
IOPIN 48 3168 Out
FLAG 320 3168 D4-Input-6
IOPIN 320 3168 Out
FLAG -400 2992 0
FLAG -400 2704 Clock7
IOPIN -400 2704 Out
FLAG -32 2960 Clock6
IOPIN -32 2960 In
FLAG 240 2752 Q2-Output-6
IOPIN 240 2752 Out
FLAG 512 2752 Q2-Output-6
IOPIN 512 2752 Out
FLAG 240 3168 Q3-Output-6
IOPIN 240 3168 Out
FLAG 496 3168 Q3-Output-6
IOPIN 496 3168 Out
SYMBOL DigitalLogic\\AND_2 960 -336 R0
SYMATTR InstName U1
SYMBOL DigitalLogic\\AND_2 960 -240 R0
SYMATTR InstName U2
SYMBOL DigitalLogic\\AND_2 848 -288 R0
SYMATTR InstName U3
SYMBOL DigitalLogic\\AND_2 1088 -288 R0
SYMATTR InstName U4
SYMBOL DigitalLogic\\OR_2 880 -144 R0
SYMATTR InstName U5
SYMBOL DigitalLogic\\OR_2 880 -16 R0
SYMATTR InstName U6
SYMBOL DigitalLogic\\OR_2 1024 -80 R0
SYMATTR InstName U7
SYMBOL DigitalLogic\\OR_2 1136 -80 R0
SYMATTR InstName U8
SYMBOL DigitalLogic\\OR_2 880 96 R0
SYMATTR InstName U9
SYMBOL DigitalLogic\\OR_2 880 224 R0
SYMATTR InstName U10
SYMBOL DigitalLogic\\OR_2 992 160 R0
SYMATTR InstName U11
SYMBOL DigitalLogic\\OR_2 992 304 R0
SYMATTR InstName U12
SYMBOL DigitalLogic\\OR_2 1104 224 R0
SYMATTR InstName U13
SYMBOL voltage 448 -288 R0
WINDOW 3 -75 296 Left 2
WINDOW 123 0 0 Left 0
WINDOW 39 0 0 Left 0
SYMATTR Value PULSE(0 5 0 1n 1n 1m 2m)
SYMATTR InstName V1
SYMBOL voltage 496 -176 R0
WINDOW 3 -122 217 Left 2
WINDOW 123 0 0 Left 0
WINDOW 39 0 0 Left 0
SYMATTR Value PULSE(0 5 0 1n 1n 2m 4m)
SYMATTR InstName V2
SYMBOL voltage -496 592 R0
WINDOW 3 -83 428 Left 2
WINDOW 123 0 0 Left 0
WINDOW 39 0 0 Left 0
SYMATTR Value PULSE(0 5 0 1n 1n 1m 2m)
SYMATTR InstName V3
SYMBOL voltage -448 704 R0
WINDOW 3 -131 346 Left 2
WINDOW 123 0 0 Left 0
WINDOW 39 0 0 Left 0
SYMATTR Value PULSE(0 5 0 1n 1n 2m 4m)
SYMATTR InstName V4
SYMBOL voltage -400 816 R0
WINDOW 3 -178 262 Left 2
WINDOW 123 0 0 Left 0
WINDOW 39 0 0 Left 0
SYMATTR Value PULSE(0 5 0 1n 1n 4m 8m)
SYMATTR InstName V5
SYMBOL DigitalLogic\\XOR_2 80 528 R0
SYMATTR InstName U14
SYMBOL DigitalLogic\\XOR_2 80 832 R0
SYMATTR InstName U15
SYMBOL DigitalLogic\\XOR_2 -16 960 R0
SYMATTR InstName U16
SYMBOL DigitalLogic\\XOR_2 272 976 R0
SYMATTR InstName U17
SYMBOL DigitalLogic\\XOR_2 0 1280 R0
SYMATTR InstName U18
SYMBOL DigitalLogic\\XOR_2 272 1296 R0
SYMATTR InstName U19
SYMBOL DigitalLogic\\AND_2 64 608 R0
SYMATTR InstName U20
SYMBOL DigitalLogic\\AND_2 64 736 R0
SYMATTR InstName U21
SYMBOL DigitalLogic\\AND_2 144 1040 R0
SYMATTR InstName U22
SYMBOL DigitalLogic\\AND_2 144 1136 R0
SYMATTR InstName U23
SYMBOL DigitalLogic\\AND_2 144 1376 R0
SYMATTR InstName U24
SYMBOL DigitalLogic\\AND_2 -16 1472 R0
SYMATTR InstName U25
SYMBOL DigitalLogic\\INV_1 -64 592 R0
SYMATTR InstName U26
SYMBOL DigitalLogic\\INV_1 16 1056 R0
SYMATTR InstName U27
SYMBOL DigitalLogic\\INV_1 16 1120 R0
SYMATTR InstName U28
SYMBOL DigitalLogic\\OR_2 256 1440 R0
SYMATTR InstName U29
SYMBOL DigitalLogic\\OR_2 256 1088 R0
SYMATTR InstName U30
SYMBOL voltage 1536 -272 R0
WINDOW 3 -76 487 Left 2
WINDOW 123 0 0 Left 0
WINDOW 39 0 0 Left 0
SYMATTR Value PULSE(0 5 0 1n 1n 1m 2m)
SYMATTR InstName V6
SYMBOL voltage 1584 -160 R0
WINDOW 3 -124 402 Left 2
WINDOW 123 0 0 Left 0
WINDOW 39 0 0 Left 0
SYMATTR Value PULSE(0 5 0 1n 1n 2m 4m)
SYMATTR InstName V7
SYMBOL voltage 1632 -48 R0
WINDOW 3 -171 318 Left 2
WINDOW 123 0 0 Left 0
WINDOW 39 0 0 Left 0
SYMATTR Value PULSE(0 5 0 1n 1n 4m 8m)
SYMATTR InstName V8
SYMBOL voltage 1680 48 R0
WINDOW 3 -220 248 Left 2
WINDOW 123 0 0 Left 0
WINDOW 39 0 0 Left 0
SYMATTR Value PULSE(0 5 0 1n 1n 8m 16m)
SYMATTR InstName V9
SYMBOL DigitalLogic\\INV_1 1968 -368 R0
SYMATTR InstName U31
SYMBOL DigitalLogic\\AND_2 1984 -304 R0
SYMATTR InstName U32
SYMBOL DigitalLogic\\OR_2 1984 -144 R0
SYMATTR InstName U33
SYMBOL DigitalLogic\\INV_1 1968 0 R0
SYMATTR InstName U34
SYMBOL DigitalLogic\\OR_2 2320 -288 R0
SYMATTR InstName U35
SYMBOL DigitalLogic\\AND_2 2320 -128 R0
SYMATTR InstName U36
SYMBOL DigitalLogic\\AND_2 2320 -16 R0
SYMATTR InstName U37
SYMBOL DigitalLogic\\AND_2 2320 64 R0
SYMATTR InstName U38
SYMBOL DigitalLogic\\OR_2 2496 80 R0
SYMATTR InstName U39
SYMBOL DigitalLogic\\OR_2 2496 -64 R0
SYMATTR InstName U40
SYMBOL DigitalLogic\\INV_1 2144 -144 R0
SYMATTR InstName U41
SYMBOL voltage 896 720 R0
WINDOW 3 256 -98 Left 2
SYMATTR Value PULSE(0 5 1m 1n 1n 2m 4m 1)
SYMATTR InstName V10
SYMBOL voltage 960 816 R0
WINDOW 3 191 -79 Left 2
SYMATTR Value PULSE(0 5 6m 1n 1n 1m 2m)
SYMATTR InstName V11
SYMBOL voltage 896 912 R0
WINDOW 3 257 -264 Left 2
SYMATTR Value PULSE(0 5 4m 1n 1n 1m 2m)
SYMATTR InstName V12
SYMBOL voltage 960 624 R0
WINDOW 3 191 84 Left 2
SYMATTR Value PULSE(0 5 1m 1n 1n 3m 6m 1)
SYMATTR InstName V13
SYMBOL voltage 1024 720 R0
WINDOW 3 127 67 Left 2
SYMATTR Value PULSE(0 5 0 1n 1n 3m 6m 1)
SYMATTR InstName V14
SYMBOL voltage 1024 912 R0
WINDOW 3 127 -103 Left 2
SYMATTR Value PULSE(0 5 4m 1n 1n 2m 4m 1)
SYMATTR InstName V15
SYMBOL voltage 1072 624 R0
WINDOW 3 79 235 Left 2
SYMATTR Value PULSE(0 5 4m 1n 1n 2m 4m 1)
SYMATTR InstName V16
SYMBOL voltage 1072 816 R0
WINDOW 3 79 67 Left 2
SYMATTR Value PULSE(0 5 7m 1n 1n 1m 2m 1)
SYMATTR InstName V17
SYMBOL voltage 1584 688 R0
WINDOW 3 -179 293 Left 2
WINDOW 123 0 0 Left 0
WINDOW 39 0 0 Left 0
SYMATTR Value PULSE(0 5 0 1n 1n 1m 2m)
SYMATTR InstName V18
SYMBOL voltage 1632 800 R0
WINDOW 3 -228 210 Left 2
WINDOW 123 0 0 Left 0
WINDOW 39 0 0 Left 0
SYMATTR Value PULSE(0 5 0 1n 1n 2m 4m)
SYMATTR InstName V19
SYMBOL DigitalLogic\\AND_3 1328 1200 R0
SYMATTR InstName U42
SYMBOL DigitalLogic\\AND_3 1328 1312 R0
SYMATTR InstName U43
SYMBOL DigitalLogic\\AND_3 1328 1440 R0
SYMATTR InstName U44
SYMBOL DigitalLogic\\AND_3 1328 1552 R0
SYMATTR InstName U45
SYMBOL DigitalLogic\\INV_1 1232 1648 R270
SYMATTR InstName U46
SYMBOL DigitalLogic\\INV_1 1120 1648 R270
SYMATTR InstName U47
SYMBOL DigitalLogic\\OR_4 1472 1376 R0
SYMATTR InstName U48
SYMBOL voltage 1792 688 R0
WINDOW 3 88 73 Left 2
SYMATTR Value PULSE(0 5 0 1n 1n 2m 4m 1)
SYMATTR InstName V20
SYMBOL voltage 1792 784 R0
WINDOW 3 88 7 Left 2
SYMATTR Value PULSE(0 5 4m 1n 1n 1m 2m 1)
SYMATTR InstName V21
SYMBOL voltage 1792 880 R0
WINDOW 3 88 -61 Left 2
SYMATTR Value PULSE(0 5 6m 1n 1n 2m 4m 1)
SYMATTR InstName V22
SYMBOL DigitalLogic\\INV_1 1840 1648 R270
SYMATTR InstName U49
SYMBOL DigitalLogic\\INV_1 1728 1648 R270
SYMATTR InstName U50
SYMBOL DigitalLogic\\AND_3 1968 1200 R0
SYMATTR InstName U51
SYMBOL DigitalLogic\\AND_3 1968 1312 R0
SYMATTR InstName U52
SYMBOL DigitalLogic\\AND_3 1968 1440 R0
SYMATTR InstName U53
SYMBOL DigitalLogic\\AND_3 1968 1552 R0
SYMATTR InstName U54
SYMBOL voltage 2272 592 R0
WINDOW 3 -5 301 Left 2
WINDOW 123 0 0 Left 0
WINDOW 39 0 0 Left 0
SYMATTR Value PULSE(0 5 0 1n 1n 1m 2m 1)
SYMATTR InstName V23
SYMBOL voltage 2320 704 R0
WINDOW 3 -66 216 Left 2
WINDOW 123 0 0 Left 0
WINDOW 39 0 0 Left 0
SYMATTR Value PULSE(0 5 1m 1n 1n 1m 2m 1)
SYMATTR InstName V24
SYMBOL voltage 2368 592 R0
WINDOW 3 -115 353 Left 2
WINDOW 123 0 0 Left 0
WINDOW 39 0 0 Left 0
SYMATTR Value PULSE(0 5 2m 1n 1n 1m 2m 1)
SYMATTR InstName V25
SYMBOL voltage 2416 704 R0
WINDOW 3 -163 267 Left 2
WINDOW 123 0 0 Left 0
WINDOW 39 0 0 Left 0
SYMATTR Value PULSE(0 5 3m 1n 1n 1m 2m 1)
SYMATTR InstName V26
SYMBOL voltage 2464 592 R0
WINDOW 3 -210 405 Left 2
WINDOW 123 0 0 Left 0
WINDOW 39 0 0 Left 0
SYMATTR Value PULSE(0 5 4m 1n 1n 1m 2m 1)
SYMATTR InstName V27
SYMBOL voltage 2512 704 R0
WINDOW 3 -257 318 Left 2
WINDOW 123 0 0 Left 0
WINDOW 39 0 0 Left 0
SYMATTR Value PULSE(0 5 5m 1n 1n 1m 2m 1)
SYMATTR InstName V28
SYMBOL voltage 2560 592 R0
WINDOW 3 -304 456 Left 2
WINDOW 123 0 0 Left 0
WINDOW 39 0 0 Left 0
SYMATTR Value PULSE(0 5 6m 1n 1n 1m 2m 1)
SYMATTR InstName V29
SYMBOL voltage 2608 704 R0
WINDOW 3 -352 370 Left 2
WINDOW 123 0 0 Left 0
WINDOW 39 0 0 Left 0
SYMATTR Value PULSE(0 5 7m 1n 1n 1m 2m 1)
SYMATTR InstName V30
SYMBOL DigitalLogic\\OR_4 2656 1232 R0
SYMATTR InstName U55
SYMBOL DigitalLogic\\OR_4 2656 1344 R0
SYMATTR InstName U56
SYMBOL DigitalLogic\\OR_4 2656 1456 R0
SYMATTR InstName U57
SYMBOL voltage 1056 2176 R0
WINDOW 3 -83 428 Left 2
WINDOW 123 0 0 Left 0
WINDOW 39 0 0 Left 0
SYMATTR Value 5
SYMATTR InstName V31
SYMBOL voltage 1104 2288 R0
WINDOW 3 -131 346 Left 2
WINDOW 123 0 0 Left 0
WINDOW 39 0 0 Left 0
SYMATTR Value PULSE(0 5 1m 1n 1n 1m 2m)
SYMATTR InstName V32
SYMBOL voltage 1152 2400 R0
WINDOW 3 -178 262 Left 2
WINDOW 123 0 0 Left 0
WINDOW 39 0 0 Left 0
SYMATTR Value PULSE(0 5 1m 1n 1n 4m 10m)
SYMATTR InstName V33
SYMBOL voltage 1840 2176 R0
WINDOW 3 -83 428 Left 2
WINDOW 123 0 0 Left 0
WINDOW 39 0 0 Left 0
SYMATTR Value PULSE(0 5 1m 1n 1n 1m 2m)
SYMATTR InstName V34
SYMBOL voltage 1888 2288 R0
WINDOW 3 -131 346 Left 2
WINDOW 123 0 0 Left 0
WINDOW 39 0 0 Left 0
SYMATTR Value PULSE(0 5 2m 1n 1n 2m 4m)
SYMATTR InstName V35
SYMBOL voltage 1936 2400 R0
WINDOW 3 -178 262 Left 2
WINDOW 123 0 0 Left 0
WINDOW 39 0 0 Left 0
SYMATTR Value PULSE(0 5 4m 1n 1n 4m 8m)
SYMATTR InstName V36
SYMBOL voltage 1056 2928 R0
WINDOW 3 -83 428 Left 2
WINDOW 123 0 0 Left 0
WINDOW 39 0 0 Left 0
SYMATTR Value PULSE(0 5 8m 1n 1n 8m 16m)
SYMATTR InstName V37
SYMBOL voltage 1104 3040 R0
WINDOW 3 -131 346 Left 2
WINDOW 123 0 0 Left 0
WINDOW 39 0 0 Left 0
SYMATTR Value PULSE(0 5 1m 1n 1n 1m 2m)
SYMATTR InstName V38
SYMBOL voltage 1152 3152 R0
WINDOW 3 -178 262 Left 2
WINDOW 123 0 0 Left 0
WINDOW 39 0 0 Left 0
SYMATTR Value PULSE(0 5 4m 1n 1n 4m 8m)
SYMATTR InstName V39
SYMBOL DigitalLogic\\DFF_R 1584 2240 R0
SYMATTR InstName U58
SYMBOL DigitalLogic\\TFF_R 1520 2912 R0
SYMATTR InstName U59
SYMBOL DigitalLogic\\AND_2 2272 2240 R0
SYMATTR InstName U60
SYMBOL DigitalLogic\\AND_2 2272 2352 R0
SYMATTR InstName U61
SYMBOL DigitalLogic\\OR_2 2384 2288 R0
SYMATTR InstName U62
SYMBOL DigitalLogic\\INV_1 2160 2256 R0
SYMATTR InstName U63
SYMBOL voltage -320 1824 R0
WINDOW 3 -129 369 Left 2
SYMATTR Value PULSE(0 5 2m 1n 1n 2m 4m 1)
SYMATTR InstName V40
SYMBOL voltage -320 1920 R0
WINDOW 3 -129 296 Left 2
SYMATTR Value PULSE(0 5 5m 1n 1n 2m 4m 1)
SYMATTR InstName V41
SYMBOL voltage -320 2016 R0
WINDOW 3 -129 223 Left 2
SYMATTR Value PULSE(0 5 9m 1n 1n 1m 2m 3)
SYMATTR InstName V42
SYMBOL voltage -240 1920 R0
WINDOW 3 -209 381 Left 2
SYMATTR Value PULSE(0 5 1m 1n 1n 1m 2m)
SYMATTR InstName V43
SYMBOL DigitalLogic\\DFF 368 1824 R0
SYMATTR InstName U64
SYMBOL DigitalLogic\\DFF 368 1984 R0
SYMATTR InstName U65
SYMBOL DigitalLogic\\AND_2 176 1792 R0
SYMATTR InstName U66
SYMBOL DigitalLogic\\AND_2 576 1904 R0
SYMATTR InstName U67
SYMBOL DigitalLogic\\INV_1 80 1776 R0
SYMATTR InstName U68
SYMBOL DigitalLogic\\DFF 128 2848 R0
SYMATTR InstName U69
SYMBOL DigitalLogic\\DFF 400 2848 R0
SYMATTR InstName U70
SYMBOL DigitalLogic\\DFF 128 3088 R0
SYMATTR InstName U71
SYMBOL DigitalLogic\\DFF 400 3088 R0
SYMATTR InstName U72
SYMBOL voltage -656 2736 R0
WINDOW 3 -32 295 Left 2
WINDOW 123 0 0 Left 0
WINDOW 39 0 0 Left 0
SYMATTR Value PULSE(0 5 1m 1n 1n 16m 32m)
SYMATTR InstName V44
SYMBOL voltage -608 2848 R0
WINDOW 3 -80 211 Left 2
WINDOW 123 0 0 Left 0
WINDOW 39 0 0 Left 0
SYMATTR Value PULSE(0 5 1m 1n 1n 16m 8m)
SYMATTR InstName V45
SYMBOL voltage -560 2736 R0
WINDOW 3 -129 351 Left 2
WINDOW 123 0 0 Left 0
WINDOW 39 0 0 Left 0
SYMATTR Value PULSE(0 5 1m 1n 1n 4m 8m)
SYMATTR InstName V46
SYMBOL voltage -512 2848 R0
WINDOW 3 -177 265 Left 2
WINDOW 123 0 0 Left 0
WINDOW 39 0 0 Left 0
SYMATTR Value PULSE(0 5 1m 1n 1n 2m 4m)
SYMATTR InstName V47
SYMBOL voltage -400 2800 R0
WINDOW 3 45 65 Left 2
SYMATTR Value PULSE(0 5 1m 1n 1n 1m 2m)
SYMATTR InstName V48
TEXT 376 152 Left 3 ;CONSTRUCTING\nGATES USING\nOTHER GATES
TEXT 1920 256 Left 4 ;CODE CONVERTERS
TEXT 2472 256 Left 2 ;Trans. 32m
TEXT -520 1256 Left 3 ;BINARY\nADDERS &\nSUBTRACTOR
TEXT -480 1432 Left 2 ;Trans. 16m
TEXT 2320 1616 Left 3 ;MULTIPLEXER\nDEMULTIPLEXER\n \nBINARY ENCODER
TEXT 2632 1632 Left 2 ;Trans. 16m
TEXT 2640 1720 Left 2 ;Trans. 8m
TEXT 40 2232 Left 3 ;MEALY\nSEQUENCE\nDETECTOR
TEXT 2048 2904 Left 3 ;D FLIP FLOP\n2:1 MULTIPLEXER  \nT FLIP FLOP
TEXT -688 3216 Left 3 ;PARALEL INPUT \nPARALEL OUTPUT \nREGISTERS
TEXT 384 2256 Left 2 ;Trans. 16m
TEXT 2064 3120 Left 2 ;1) Trans. 10m
TEXT 2064 3224 Left 2 ;2) Trans. 16m
TEXT 2064 3336 Left 2 ;3) Trans. 16m
TEXT 1288 2384 Left 3 ;1
TEXT 2064 2440 Left 3 ;2
TEXT 1280 3040 Left 3 ;3
TEXT -264 3248 Left 2 ;Trans. 64m
TEXT 432 312 Left 2 ;Trans. 8m
TEXT -136 -320 Center 6 ;DLD LAB\nCOMBINED
TEXT -136 -112 Center 3 ;THE SIMULATION SETTINGS ARE\nINCLUDED WITH CIRCUIT DIAGRAM\n \nCHANGE THE VALVE CORRESPONDING\nTO THE DIAGRAM BELOW
TEXT -200 160 Left 2 !.tran 10m
TEXT -144 264 Center 3 ;MADE WITH LOVE BY\nHARSH AVINASH
RECTANGLE Normal 1312 368 336 -432 2
RECTANGLE Normal 2816 368 1408 -432 2
RECTANGLE Normal 736 1552 -592 448 2
RECTANGLE Normal 2832 1824 832 448 2
RECTANGLE Normal 2576 3552 832 1920 2
RECTANGLE Normal 720 3376 -752 2528 2
RECTANGLE Normal 2816 144 1856 368 2
RECTANGLE Normal -592 2432 720 1632 2
RECTANGLE Normal 720 2112 -64 2432 2
RECTANGLE Normal 2256 1536 2832 1824 2
RECTANGLE Normal -32 3376 -752 3136 2
RECTANGLE Normal 1744 2752 2576 3552 2
RECTANGLE Normal -256 1136 -592 1552 2
RECTANGLE Normal 336 368 656 112 2
RECTANGLE Normal 0 208 -288 112 1
