Version 4
SHEET 1 1036 932
WIRE 592 48 560 48
WIRE 48 64 0 64
WIRE 176 64 48 64
WIRE 560 64 560 48
WIRE 560 64 512 64
WIRE 672 64 656 64
WIRE 256 80 240 80
WIRE 560 80 560 64
WIRE 592 80 560 80
WIRE 176 96 160 96
WIRE 672 96 672 64
WIRE 688 96 672 96
WIRE 784 96 768 96
WIRE 48 112 48 64
WIRE 80 112 48 112
WIRE 256 112 256 80
WIRE 272 112 256 112
WIRE 768 112 768 96
WIRE 768 112 752 112
WIRE 880 112 848 112
WIRE 160 128 160 96
WIRE 160 128 144 128
WIRE 368 128 336 128
WIRE 688 128 672 128
WIRE 768 128 768 112
WIRE 784 128 768 128
WIRE 80 144 48 144
WIRE 272 144 256 144
WIRE 592 144 560 144
WIRE 160 160 160 128
WIRE 176 160 160 160
WIRE 560 160 560 144
WIRE 560 160 512 160
WIRE 672 160 672 128
WIRE 672 160 656 160
WIRE 256 176 256 144
WIRE 256 176 240 176
WIRE 560 176 560 160
WIRE 592 176 560 176
WIRE -336 192 -336 128
WIRE -256 192 -256 128
WIRE 48 192 48 144
WIRE 48 192 0 192
WIRE 176 192 48 192
WIRE 576 272 528 272
WIRE 656 288 640 288
WIRE 528 304 528 272
WIRE 528 304 496 304
WIRE 576 304 528 304
WIRE -336 320 -336 272
WIRE -256 320 -256 272
WIRE 656 320 656 288
WIRE 672 320 656 320
WIRE 752 336 736 336
WIRE 672 352 656 352
WIRE 544 368 496 368
WIRE 576 368 544 368
WIRE 752 368 752 336
WIRE 784 368 752 368
WIRE 656 384 656 352
WIRE 656 384 640 384
WIRE 864 384 848 384
WIRE 544 400 544 368
WIRE 576 400 544 400
WIRE 784 400 752 400
WIRE 544 432 544 400
WIRE 672 432 544 432
WIRE 752 448 752 400
WIRE 752 448 736 448
WIRE 528 464 528 304
WIRE 672 464 528 464
FLAG -336 320 0
FLAG -256 320 0
FLAG -336 128 Aa
IOPIN -336 128 Out
FLAG -256 128 Ba
IOPIN -256 128 Out
FLAG 0 64 Aa
IOPIN 0 64 In
FLAG 512 64 Aa
IOPIN 512 64 In
FLAG 496 304 Aa
IOPIN 496 304 In
FLAG 0 192 Ba
IOPIN 0 192 In
FLAG 496 368 Ba
IOPIN 496 368 In
FLAG 512 160 Ba
IOPIN 512 160 In
FLAG 368 128 Qa
IOPIN 368 128 Out
FLAG 880 112 Wa
IOPIN 880 112 Out
FLAG 864 384 Xa
IOPIN 864 384 Out
SYMBOL DigitalLogic\\AND_2 112 128 R0
SYMATTR InstName U1
SYMBOL DigitalLogic\\AND_2 208 80 R0
SYMATTR InstName U2
SYMBOL DigitalLogic\\AND_2 208 176 R0
SYMATTR InstName U3
SYMBOL DigitalLogic\\AND_2 304 128 R0
SYMATTR InstName U4
SYMBOL DigitalLogic\\OR_2 624 64 R0
SYMATTR InstName U9
SYMBOL DigitalLogic\\OR_2 624 160 R0
SYMATTR InstName U10
SYMBOL DigitalLogic\\OR_2 720 112 R0
SYMATTR InstName U11
SYMBOL DigitalLogic\\OR_2 816 112 R0
SYMATTR InstName U12
SYMBOL DigitalLogic\\NOR_2 608 288 R0
SYMATTR InstName U13
SYMBOL DigitalLogic\\NOR_2 608 384 R0
SYMATTR InstName U14
SYMBOL DigitalLogic\\NOR_2 704 336 R0
SYMATTR InstName U15
SYMBOL DigitalLogic\\NOR_2 704 448 R0
SYMATTR InstName U16
SYMBOL DigitalLogic\\NOR_2 816 384 R0
SYMATTR InstName U17
SYMBOL voltage -336 176 R0
WINDOW 3 -96 181 Left 2
WINDOW 123 0 0 Left 0
WINDOW 39 0 0 Left 0
SYMATTR Value PULSE(0 5 0 1n 1n 1m 2m)
SYMATTR InstName V1
SYMBOL voltage -256 176 R0
WINDOW 3 -175 207 Left 2
WINDOW 123 0 0 Left 0
WINDOW 39 0 0 Left 0
SYMATTR Value PULSE(0 5 0 1n 1n 4m 8m)
SYMATTR InstName V2
TEXT -336 608 Left 2 !.tran 10m
TEXT 160 224 Left 2 !XOR
TEXT 648 216 Left 2 !NAND
TEXT 648 512 Left 2 !XOR
