Version 4
SHEET 1 1340 1364
WIRE 608 -80 -176 -80
WIRE 320 16 272 16
WIRE 512 16 448 16
WIRE 320 64 272 64
WIRE 512 80 448 80
WIRE -80 112 -80 48
WIRE 0 112 0 48
WIRE 80 112 80 48
WIRE 384 192 384 144
WIRE -80 256 -80 192
WIRE 0 256 0 192
WIRE 80 256 80 192
WIRE -176 384 -176 -80
WIRE 608 384 608 -80
WIRE 608 384 -176 384
WIRE 752 400 -176 400
WIRE 448 512 240 512
WIRE 544 528 512 528
WIRE -80 544 -80 480
WIRE 0 544 0 480
WIRE 80 544 80 480
WIRE 336 544 304 544
WIRE 448 544 400 544
WIRE 544 576 544 528
WIRE 592 576 544 576
WIRE 384 592 240 592
WIRE 688 592 656 592
WIRE 592 608 544 608
WIRE 384 640 384 592
WIRE 448 640 384 640
WIRE 544 656 544 608
WIRE 544 656 512 656
WIRE 304 672 304 544
WIRE 304 672 240 672
WIRE 448 672 304 672
WIRE -80 688 -80 624
WIRE 0 688 0 624
WIRE 80 688 80 624
WIRE -176 816 -176 400
WIRE 752 816 752 400
WIRE 752 816 -176 816
WIRE 608 832 -176 832
WIRE 320 960 272 960
WIRE 512 960 448 960
WIRE 320 1008 272 1008
WIRE 512 1024 448 1024
WIRE -80 1072 -80 1008
WIRE 0 1072 0 1008
WIRE 80 1072 80 1008
WIRE 384 1136 384 1088
WIRE -80 1200 -80 1152
WIRE 0 1200 0 1152
WIRE 80 1200 80 1152
WIRE -176 1360 -176 832
WIRE 608 1360 608 832
WIRE 608 1360 -176 1360
FLAG 272 16 D-Input
IOPIN 272 16 In
FLAG 272 64 Clock
IOPIN 272 64 In
FLAG 384 192 Reset
IOPIN 384 192 In
FLAG 512 16 Q
IOPIN 512 16 Out
FLAG 512 80 Qo
IOPIN 512 80 Out
FLAG -80 256 0
FLAG 0 256 0
FLAG 80 256 0
FLAG -80 48 Reset
IOPIN -80 48 Out
FLAG 80 48 D-Input
IOPIN 80 48 Out
FLAG 0 48 Clock
IOPIN 0 48 Out
FLAG -80 688 0
FLAG 0 688 0
FLAG 80 688 0
FLAG -80 480 D0
IOPIN -80 480 Out
FLAG 80 480 S
IOPIN 80 480 Out
FLAG 0 480 D1
IOPIN 0 480 Out
FLAG 240 512 D0
IOPIN 240 512 In
FLAG 240 592 D1
IOPIN 240 592 In
FLAG 240 672 S
IOPIN 240 672 In
FLAG 688 592 Y
IOPIN 688 592 Out
FLAG 272 960 T-Input
IOPIN 272 960 In
FLAG 272 1008 Clock-TFF
IOPIN 272 1008 In
FLAG 384 1136 Reset-TFF
IOPIN 384 1136 In
FLAG 512 960 Q1
IOPIN 512 960 Out
FLAG 512 1024 Q1o
IOPIN 512 1024 Out
FLAG -80 1008 Reset-TFF
IOPIN -80 1008 Out
FLAG 80 1008 T-Input
IOPIN 80 1008 Out
FLAG 0 1008 Clock-TFF
IOPIN 0 1008 Out
FLAG -80 1200 0
FLAG 0 1200 0
FLAG 80 1200 0
SYMBOL DigitalLogic\\DFF_R 384 48 R0
SYMATTR InstName U1
SYMBOL voltage -80 96 R0
WINDOW 123 0 0 Left 0
WINDOW 39 0 0 Left 0
SYMATTR InstName V1
SYMATTR Value 5
SYMBOL voltage 0 96 R0
WINDOW 3 -153 197 Left 2
WINDOW 123 0 0 Left 0
WINDOW 39 0 0 Left 0
SYMATTR Value PULSE(0 5 1m 1n 1n 1m 2m)
SYMATTR InstName V2
SYMBOL voltage 80 96 R0
WINDOW 3 -233 222 Left 2
WINDOW 123 0 0 Left 0
WINDOW 39 0 0 Left 0
SYMATTR Value PULSE(0 5 1m 1n 1n 4m 10m)
SYMATTR InstName V3
SYMBOL voltage -80 528 R0
WINDOW 123 0 0 Left 0
WINDOW 39 0 0 Left 0
WINDOW 3 -71 194 Left 2
SYMATTR Value PULSE(0 5 1m 1n 1n 1m 2m)
SYMATTR InstName V4
SYMBOL voltage 0 528 R0
WINDOW 3 -152 221 Left 2
WINDOW 123 0 0 Left 0
WINDOW 39 0 0 Left 0
SYMATTR Value PULSE(0 5 2m 1n 1n 2m 4m)
SYMATTR InstName V5
SYMBOL voltage 80 528 R0
WINDOW 3 -233 250 Left 2
WINDOW 123 0 0 Left 0
WINDOW 39 0 0 Left 0
SYMATTR Value PULSE(0 5 4m 1n 1n 4m 8m)
SYMATTR InstName V6
SYMBOL DigitalLogic\\AND_2 480 528 R0
SYMATTR InstName U2
SYMBOL DigitalLogic\\AND_2 480 656 R0
SYMATTR InstName U3
SYMBOL DigitalLogic\\INV_1 352 544 R0
SYMATTR InstName U4
SYMBOL DigitalLogic\\OR_2 624 592 R0
SYMATTR InstName U5
SYMBOL voltage -80 1056 R0
WINDOW 123 0 0 Left 0
WINDOW 39 0 0 Left 0
WINDOW 3 -73 171 Left 2
SYMATTR InstName V7
SYMATTR Value PULSE(0 5 8m 1n 1n 8m 16m)
SYMBOL voltage 0 1056 R0
WINDOW 3 -153 197 Left 2
WINDOW 123 0 0 Left 0
WINDOW 39 0 0 Left 0
SYMATTR Value PULSE(0 5 1m 1n 1n 1m 2m)
SYMATTR InstName V8
SYMBOL voltage 80 1056 R0
WINDOW 3 -233 222 Left 2
WINDOW 123 0 0 Left 0
WINDOW 39 0 0 Left 0
SYMATTR Value PULSE(0 5 4m 1n 1n 4m 8m)
SYMATTR InstName V9
SYMBOL DigitalLogic\\TFF_R 384 992 R0
SYMATTR InstName U6
TEXT -376 152 Left 2 !.tran 10ms
