Version 4
SHEET 1 1512 680
WIRE -592 48 -592 -16
WIRE 224 80 112 80
WIRE 320 80 256 80
WIRE 112 112 112 80
WIRE 320 112 320 80
WIRE -592 176 -592 128
WIRE 160 256 160 240
WIRE 160 256 -16 256
WIRE 368 256 368 240
WIRE 368 256 160 256
WIRE 112 272 112 240
WIRE 160 272 112 272
WIRE 160 288 160 272
WIRE -592 304 -592 256
WIRE 224 304 224 80
WIRE 432 304 224 304
WIRE -496 320 -496 256
WIRE 576 320 496 320
WIRE 320 336 320 240
WIRE 432 336 320 336
WIRE 48 368 16 368
WIRE 144 368 144 352
WIRE 144 368 112 368
WIRE 176 368 176 352
WIRE 256 368 256 80
WIRE 256 368 176 368
WIRE 16 400 16 368
WIRE 16 400 -16 400
WIRE 16 432 16 400
WIRE 320 432 320 336
WIRE 320 432 16 432
WIRE -592 448 -592 384
WIRE -496 448 -496 400
FLAG -592 -16 X
IOPIN -592 -16 Out
FLAG -496 256 Clock
IOPIN -496 256 Out
FLAG -496 448 0
FLAG -16 400 X
IOPIN -16 400 In
FLAG -16 256 Clock
IOPIN -16 256 In
FLAG 576 320 Z
IOPIN 576 320 Out
FLAG -592 448 0
SYMBOL DigitalLogic\\AND_2 160 320 R270
SYMATTR InstName U3
SYMBOL DigitalLogic\\AND_2 464 320 R0
SYMATTR InstName U4
SYMBOL DigitalLogic\\INV_1 64 368 R0
SYMATTR InstName U5
SYMBOL voltage -592 32 R0
WINDOW 3 -146 521 Left 2
WINDOW 123 0 0 Left 0
WINDOW 39 0 0 Left 0
SYMATTR Value PULSE(0 5 2m 1n 1n 2m 4m 1)
SYMATTR InstName V1
SYMBOL voltage -496 304 R0
WINDOW 123 0 0 Left 0
WINDOW 39 0 0 Left 0
SYMATTR InstName V2
SYMATTR Value PULSE(0 5 1m 1n 1n 1m 2m)
SYMBOL voltage -592 160 R0
WINDOW 3 -145 430 Left 2
WINDOW 123 0 0 Left 0
WINDOW 39 0 0 Left 0
SYMATTR Value PULSE(0 5 5m 1n 1n 2m 4m 1)
SYMATTR InstName V3
SYMBOL voltage -592 288 R0
WINDOW 3 -147 340 Left 2
WINDOW 123 0 0 Left 0
WINDOW 39 0 0 Left 0
SYMATTR Value PULSE(0 5 9m 1n 1n 1m 2m 3)
SYMATTR InstName V4
SYMBOL DigitalLogic\\DFF 352 176 R270
SYMATTR InstName U6
SYMBOL DigitalLogic\\DFF 144 176 R270
SYMATTR InstName U7
TEXT -400 320 Left 2 !.tran 16m
